test/test_files/validation_tests/case2737sop_res.m
function mpc = case2737sop_res
%CASE2737SOP_RES

%% MATPOWER Case Format : Version 2
mpc.version = '2';

%%-----  Power Flow Data  -----%%
%% system MVA base
mpc.baseMVA = 100;

%% bus data
%	bus_i	type	Pd	Qd	Gs	Bs	area	Vm	Va	baseKV	zone	Vmax	Vmin	lam_P	lam_Q	mu_Vmax	mu_Vmin
mpc.bus = [
	1	1	0	0	0	0	1	1.07609644	3.34110587	220	1	1.11	0.95	89.4822	0.1770	0.0000	0.0000;
	2	1	0	0	0	0	1	1.08697767	2.19107023	220	1	1.11	0.95	89.8246	-0.0341	0.0000	0.0000;
	3	1	0	0	0	0	1	1.07995742	-13.1695589	220	1	1.11	0.95	96.4024	-0.3433	0.0000	0.0000;
	4	1	0	0	0	0	1	1.0747308	-0.139546128	220	1	1.11	0.95	90.7381	0.0166	0.0000	0.0000;
	5	1	0	0	0	0	1	1.07470477	-0.134948185	220	1	1.11	0.95	90.7382	0.0171	0.0000	0.0000;
	6	1	0	0	0	0	1	1.07342311	-7.69891174	220	1	1.11	0.95	93.2099	-0.4768	0.0000	0.0000;
	7	1	0	0	0	0	1	1.07350474	-7.69641892	220	1	1.11	0.95	93.2067	-0.4782	0.0000	0.0000;
	8	1	0	0	0	-50	1	1.03614301	-5.65361156	400	1	1.05	0.95	92.8049	-0.7547	0.0000	0.0000;
	9	1	0	0	0	0	1	1.03617319	-5.6532518	400	1	1.05	0.95	92.8043	-0.7555	0.0000	0.0000;
	10	1	0	0	0	0	1	1.06590054	-7.25535575	220	1	1.11	0.95	93.4502	-0.3129	0.0000	0.0000;
	11	1	0	0	0	0	1	1.06585608	-7.25882605	220	1	1.11	0.95	93.4515	-0.3114	0.0000	0.0000;
	12	1	0	0	0	0	1	1.0658339	-7.25591871	220	1	1.11	0.95	93.4509	-0.3098	0.0000	0.0000;
	13	1	0	0	0	0	1	1.06582711	-7.26305189	220	1	1.11	0.95	93.4514	-0.3099	0.0000	0.0000;
	14	1	0	0	0	-50	1	1.02790736	-4.56357895	400	1	1.05	0.95	92.4628	-0.4494	0.0000	0.0000;
	15	1	0	0	0	0	1	1.0486416	-7.12532387	400	1	1.05	0.95	93.0327	-1.5740	0.0000	0.0000;
	16	1	0	0	0	0	1	1.0486416	-7.12532387	400	1	1.05	0.95	93.0325	-1.5754	2354.0866	0.0000;
	17	1	0	0	0	0	1	1.07555999	-11.1095484	220	1	1.11	0.95	95.1052	-0.0880	0.0000	0.0000;
	18	1	0	0	0	0	1	1.07550893	-11.1095323	220	1	1.11	0.95	95.1042	-0.0861	0.0000	0.0000;
	19	1	0	0	0	0	1	1.07658544	0.460482946	220	1	1.11	0.95	90.4586	0.0218	0.0000	0.0000;
	20	1	0	0	0	0	1	1.07659181	0.455560361	220	1	1.11	0.95	90.4595	0.0218	0.0000	0.0000;
	21	1	0	0	0	0	1	1.06675638	-7.15677738	220	1	1.11	0.95	93.3511	-0.1824	0.0000	0.0000;
	22	1	0	0	0	0	1	1.06675638	-7.15677738	220	1	1.11	0.95	93.3511	-0.1824	0.0000	0.0000;
	23	1	0	0	0	0	1	1.06549538	-7.32455304	220	1	1.11	0.95	93.4699	-0.3584	0.0000	0.0000;
	24	1	0	0	0	0	1	1.0819483	0.773741667	220	1	1.11	0.95	90.3797	-0.0309	0.0000	0.0000;
	25	1	0	0	0	-50	1	1.01828689	-7.399744	400	1	1.05	0.95	93.6600	-0.1245	0.0000	0.0000;
	26	2	48.178	65.087	0	0	1	1.08527	3.69493151	220	1	1.11	0.95	89.3018	0.0000	0.0000	0.0000;
	27	2	28.145	35.087	0	0	1	1.08827	2.16909452	220	1	1.11	0.95	89.8497	-0.0653	0.0000	0.0000;
	28	3	0	0	0	0	1	1.027	1.77808	400	1	1.05	0.95	90.2156	-0.0851	0.0000	0.0000;
	29	2	44.698	72	0	0	1	1.027	1.78685257	400	1	1.05	0.95	90.2126	-0.0850	0.0000	0.0000;
	30	1	0	0	0	0	1	1.06331178	-7.31854255	220	1	1.11	0.95	93.5523	-0.2272	0.0000	0.0000;
	31	1	0	0	0	0	1	1.02780967	0.785896085	400	1	1.05	0.95	90.3745	-0.1567	0.0000	0.0000;
	32	1	0	0	0	0	1	1.06397002	-7.41367328	220	1	1.11	0.95	93.5297	-0.2720	0.0000	0.0000;
	33	1	0	0	0	0	1	1.06941487	-1.39440494	220	1	1.11	0.95	91.1525	0.0342	0.0000	0.0000;
	34	1	0	0	0	0	1	1.11337102	-4.0048301	220	2	1.11	0.95	90.8522	-4.4397	11730.0166	0.0000;
	35	1	0	0	0	0	1	1.07503293	-4.7044732	220	2	1.11	0.95	92.2726	-1.4203	0.0000	0.0000;
	36	1	0	0	0	0	1	1.09199118	-4.26046095	220	2	1.11	0.95	91.8665	-1.7375	0.0000	0.0000;
	37	1	0	0	0	0	1	1.09194049	-4.26191687	220	2	1.11	0.95	91.8676	-1.7350	0.0000	0.0000;
	38	1	0	0	0	0	1	1.10274585	-4.24806694	220	2	1.11	0.95	91.1584	-3.1562	0.0000	0.0000;
	39	1	0	0	0	0	1	1.09852584	-4.27313787	220	2	1.11	0.95	92.1847	-1.1120	0.0000	0.0000;
	40	1	0	0	0	0	1	1.09844881	-4.27604641	220	2	1.11	0.95	92.1859	-1.1109	0.0000	0.0000;
	41	1	0	0	0	0	1	1.03152582	-4.18570875	400	2	1.05	0.95	92.1440	-1.0852	0.0000	0.0000;
	42	2	13	0	0	0	1	1.09086	-4.14645621	220	2	1.11	0.95	91.7425	-1.1989	0.0000	0.0000;
	43	2	13	0	0	0	1	1.09091	-4.13759901	220	2	1.11	0.95	91.7398	-1.2022	0.0000	0.0000;
	44	2	25	0	0	0	1	1.04817	-4.13035366	400	2	1.05	0.95	91.9966	-1.1649	0.0000	0.0000;
	45	1	0	0	0	0	1	1.04821544	-4.13032045	400	2	1.05	0.95	91.9947	-1.1665	0.0000	0.0000;
	46	1	0	0	0	0	1	1.09820664	-4.56814669	220	2	1.11	0.95	92.3785	-1.1117	0.0000	0.0000;
	47	1	0	0	0	0	1	1.03095513	-6.8120102	400	2	1.05	0.95	92.8916	-0.8887	0.0000	0.0000;
	48	1	0	0	0	0	1	1.03095876	-6.81628407	400	2	1.05	0.95	92.8935	-0.8885	0.0000	0.0000;
	49	1	0	0	0	0	1	1.04630955	-4.03438069	400	2	1.05	0.95	91.7028	-1.5086	0.0000	0.0000;
	50	1	0	0	0	0	1	1.10252338	-3.67731005	220	2	1.11	0.95	90.7898	-3.2463	0.0000	0.0000;
	51	1	0	0	0	0	1	1.1024975	-3.67475854	220	2	1.11	0.95	90.7899	-3.2444	0.0000	0.0000;
	52	1	0	0	0	0	1	1.04343736	-4.55973984	400	2	1.05	0.95	92.1922	-1.1842	0.0000	0.0000;
	53	1	0	0	0	0	1	1.04342505	-4.55873447	400	2	1.05	0.95	92.1922	-1.1841	0.0000	0.0000;
	54	1	0	0	0	0	1	1.09127605	-3.94823432	220	2	1.11	0.95	91.8352	-1.3695	0.0000	0.0000;
	55	2	13	0	0	0	1	1.09126	-3.94156624	220	2	1.11	0.95	91.8311	-1.3710	0.0000	0.0000;
	56	2	13	0	0	0	1	1.03933	-4.0945201	400	2	1.05	0.95	92.0676	-1.1044	0.0000	0.0000;
	57	2	13	0	0	0	1	1.03932	-4.09814309	400	2	1.05	0.95	92.0690	-1.1042	0.0000	0.0000;
	58	2	67.882	25.273	0	0	1	1.09864	-4.35714556	220	2	1.11	0.95	91.6559	-1.9664	0.0000	0.0000;
	59	1	0	0	0	0	1	1.09867512	-4.35448449	220	2	1.11	0.95	91.6539	-1.9726	0.0000	0.0000;
	60	1	0	0	0	0	1	1.0949415	-4.65319561	220	2	1.11	0.95	92.3656	-1.1302	0.0000	0.0000;
	61	1	0	0	0	0	1	1.09347336	-4.56262314	220	2	1.11	0.95	92.0242	-1.3236	0.0000	0.0000;
	62	1	0	0	0	0	1	1.09346575	-4.56275028	220	2	1.11	0.95	92.0235	-1.3255	0.0000	0.0000;
	63	1	0	0	0	0	1	1.02993276	-4.94772381	400	2	1.05	0.95	92.3231	-0.9194	0.0000	0.0000;
	64	1	0	0	0	0	1	1.02995623	-4.95589083	400	2	1.05	0.95	92.3259	-0.9197	0.0000	0.0000;
	65	1	0	224.802	0	0	1	1.04163612	-4.93030372	750	2	1.05	0.9	92.3232	-0.9027	0.0000	0.0000;
	66	1	0	0	0	0	1	1.09892044	-4.49950838	220	2	1.11	0.95	91.7378	-2.5436	0.0000	0.0000;
	67	1	0	0	0	0	1	1.09958649	-4.40922754	220	2	1.11	0.95	91.6777	-2.5875	0.0000	0.0000;
	68	1	0	0	0	0	1	1.09890735	-3.16936702	220	2	1.11	0.95	90.6058	-3.0297	0.0000	0.0000;
	69	1	0	0	0	0	1	1.08112342	-1.61388852	220	3	1.11	0.95	91.1768	-0.2209	0.0000	0.0000;
	70	1	0	0	0	0	1	1.09038663	-4.8163345	220	3	1.11	0.95	92.2721	-0.9226	0.0000	0.0000;
	71	1	0	0	0	0	1	1.09038706	-4.81499091	220	3	1.11	0.95	92.2715	-0.9237	0.0000	0.0000;
	72	1	0	0	0	0	1	1.06614425	-4.60926694	220	3	1.11	0.95	92.3851	0.0114	0.0000	0.0000;
	73	1	0	0	0	0	1	1.06614939	-4.59681252	220	3	1.11	0.95	92.3817	0.0111	0.0000	0.0000;
	74	1	0	0	0	0	1	1.07233144	-3.51079428	220	3	1.11	0.95	91.7651	-0.0664	0.0000	0.0000;
	75	1	0	0	0	0	1	1.0723152	-3.51220403	220	3	1.11	0.95	91.7660	-0.0664	0.0000	0.0000;
	76	1	0	0	0	0	1	1.06369563	-8.40473457	220	3	1.11	0.95	94.1814	0.0102	0.0000	0.0000;
	77	1	0	0	0	0	1	1.06368404	-8.4081675	220	3	1.11	0.95	94.1832	0.0103	0.0000	0.0000;
	78	2	27	70	0	0	1	1.06723	-3.74887153	220	3	1.11	0.95	92.0186	0.0000	0.0000	0.0000;
	79	2	9	21	0	0	1	1.07077	-4.38014915	220	3	1.11	0.95	92.3156	-0.0433	0.0000	0.0000;
	80	1	4.602	0.91	0	0	1	1.06554306	-4.4510725	220	3	1.11	0.95	92.4187	0.0157	0.0000	0.0000;
	81	1	0	0	0	0	1	1.06554517	-4.4513254	220	3	1.11	0.95	92.4191	0.0155	0.0000	0.0000;
	82	2	18	57	0	0	1	1.0186	-0.685359354	400	3	1.05	0.95	90.7825	-0.1757	0.0000	0.0000;
	83	1	0	0	0	0	1	1.08753157	-2.60999262	220	3	1.11	0.95	91.1798	-0.3557	0.0000	0.0000;
	84	1	0	0	0	0	1	1.06972912	-4.25327411	220	3	1.11	0.95	92.1077	-0.0084	0.0000	0.0000;
	85	1	0	0	0	0	1	1.06971705	-4.25482947	220	3	1.11	0.95	92.1087	-0.0085	0.0000	0.0000;
	86	1	32.969	-8.4	0	0	1	1.08164462	-1.76373494	220	3	1.11	0.95	91.2109	-0.2332	0.0000	0.0000;
	87	1	0	0	0	0	1	1.08163936	-1.76837538	220	3	1.11	0.95	91.2124	-0.2332	0.0000	0.0000;
	88	1	0	0	0	0	1	1.06483077	-3.78081874	220	3	1.11	0.95	91.9702	0.0584	0.0000	0.0000;
	89	1	0	0	0	0	1	1.06480483	-3.78125454	220	3	1.11	0.95	91.9702	0.0584	0.0000	0.0000;
	90	1	0	0	0	0	1	1.08164941	-1.38188299	220	3	1.11	0.95	91.0457	-0.2127	0.0000	0.0000;
	91	1	0	0	0	0	1	1.0816754	-1.38554992	220	3	1.11	0.95	91.0462	-0.2136	0.0000	0.0000;
	92	1	0	0	0	0	1	1.03037595	-0.00335151878	400	3	1.05	0.95	90.7875	-0.2047	0.0000	0.0000;
	93	1	0	0	0	0	1	1.03036584	-0.00438757397	400	3	1.05	0.95	90.7877	-0.2046	0.0000	0.0000;
	94	1	0	0	0	0	1	1.06749807	-3.87547463	220	3	1.11	0.95	91.9405	0.0092	0.0000	0.0000;
	95	1	0	0	0	0	1	1.06751511	-3.88061232	220	3	1.11	0.95	91.9419	0.0092	0.0000	0.0000;
	96	1	0	0	0	0	1	1.07835969	-3.05647504	220	3	1.11	0.95	91.4340	-0.1495	0.0000	0.0000;
	97	1	0	0	0	0	1	1.07841072	-3.05420542	220	3	1.11	0.95	91.4330	-0.1504	0.0000	0.0000;
	98	2	9.938	2.19	0	0	1	1.07416	-4.02733948	220	3	1.11	0.95	92.1552	-0.1393	0.0000	0.0000;
	99	1	16.652	3.293	0	0	1	1.07417924	-4.0248014	220	3	1.11	0.95	92.1544	-0.1400	0.0000	0.0000;
	100	1	0	0	0	0	1	1.09036776	-4.81482764	220	3	1.11	0.95	92.2715	-0.9232	0.0000	0.0000;
	101	1	0	0	0	0	1	1.09036738	-4.81617166	220	3	1.11	0.95	92.2721	-0.9221	0.0000	0.0000;
	102	1	0	0	0	0	1	1.06321421	-7.80564298	220	3	1.11	0.95	93.9537	0.0324	0.0000	0.0000;
	103	1	0	0	0	0	1	1.0632061	-7.79484489	220	3	1.11	0.95	93.9502	0.0325	0.0000	0.0000;
	104	2	14	40	0	0	1	1.06927	-4.24939624	220	3	1.11	0.95	92.1322	0.0000	0.0000	0.0000;
	105	1	0	0	0	0	1	1.06916695	-4.26916609	220	3	1.11	0.95	92.1397	0.0016	0.0000	0.0000;
	106	2	7	18	0	0	1	1.06843	-3.46998313	220	3	1.11	0.95	91.7962	0.0000	0.0000	0.0000;
	107	1	0	0	0	0	1	1.06839645	-3.46975123	220	3	1.11	0.95	91.7964	-0.0002	0.0000	0.0000;
	108	1	27.63	5.872	0	0	1	1.07729383	-3.54270218	220	3	1.11	0.95	91.9503	-0.2359	0.0000	0.0000;
	109	1	17.522	3.337	0	0	1	1.0773307	-3.55039056	220	3	1.11	0.95	91.9525	-0.2371	0.0000	0.0000;
	110	1	0	0	0	0	1	1.0674958	-4.87264046	220	3	1.11	0.95	92.6581	-0.1116	0.0000	0.0000;
	111	1	0	0	0	0	1	1.06447228	-4.29077105	220	3	1.11	0.95	92.2667	0.0927	0.0000	0.0000;
	112	1	0	0	0	0	1	1.06448576	-4.29157365	220	3	1.11	0.95	92.2672	0.0922	0.0000	0.0000;
	113	1	0	0	0	0	1	1.06547903	-4.46800593	220	3	1.11	0.95	92.4521	0.0044	0.0000	0.0000;
	114	1	0	0	0	0	1	1.06549004	-4.46271409	220	3	1.11	0.95	92.4500	0.0042	0.0000	0.0000;
	115	1	0	0	0	0	1	1.0184883	-2.23921722	400	3	1.05	0.95	91.4080	-0.2491	0.0000	0.0000;
	116	1	0	0	0	0	1	1.07085693	-4.04793513	220	3	1.11	0.95	92.1785	-0.0890	0.0000	0.0000;
	117	2	8	15	0	0	1	1.07082	-4.03804576	220	3	1.11	0.95	92.1757	-0.0883	0.0000	0.0000;
	118	1	0	0	0	0	1	1.0706243	-4.66035018	220	3	1.11	0.95	92.4705	-0.1887	0.0000	0.0000;
	119	1	0	0	0	0	1	1.07064136	-4.65912405	220	3	1.11	0.95	92.4696	-0.1896	0.0000	0.0000;
	120	1	0	0	0	0	1	1.03794832	-4.26480282	400	3	1.05	0.95	92.1277	-0.9603	0.0000	0.0000;
	121	1	0	0	0	0	1	1.03798002	-4.26067844	400	3	1.05	0.95	92.1260	-0.9605	0.0000	0.0000;
	122	1	0	0	0	0	1	1.02616267	-2.06296499	400	3	1.05	0.95	91.3301	-0.3804	0.0000	0.0000;
	123	1	0	0	0	0	1	1.02622225	-2.06000597	400	3	1.05	0.95	91.3292	-0.3813	0.0000	0.0000;
	124	1	0	0	0	0	1	1.06701862	-4.94908254	220	3	1.11	0.95	92.7212	-0.1134	0.0000	0.0000;
	125	1	2.929	0.867	0	0	1	1.07440786	-3.23230073	220	3	1.11	0.95	91.5511	-0.0543	0.0000	0.0000;
	126	2	19.898	27.707	0	0	1	1.07421	-3.22644783	220	3	1.11	0.95	91.5514	-0.0514	0.0000	0.0000;
	127	2	12.2	25.8	0	0	1	1.01239	-1.86991939	400	3	1.05	0.95	91.2979	-0.1135	0.0000	0.0000;
	128	1	0	0	0	0	1	1.01231984	-1.87452217	400	3	1.05	0.95	91.2999	-0.1129	0.0000	0.0000;
	129	1	0	0	0	0	1	1.08145257	-1.86060552	220	3	1.11	0.95	91.2543	-0.2341	0.0000	0.0000;
	130	1	0	0	0	0	1	1.08140364	-1.86142075	220	3	1.11	0.95	91.2542	-0.2333	0.0000	0.0000;
	131	1	0	0	0	0	1	1.08074107	-1.73892047	220	3	1.11	0.95	91.2028	-0.2119	0.0000	0.0000;
	132	2	137	9	0	0	1	1.06355	-8.84484549	220	3	1.11	0.95	94.3690	0.0000	0.0000	0.0000;
	133	2	137	6	0	0	1	1.06355	-8.8497341	220	3	1.11	0.95	94.3708	0.0000	0.0000	0.0000;
	134	1	0.515	1.973	0	0	1	1.06639753	-2.02129257	220	4	1.11	0.95	91.3665	0.0003	0.0000	0.0000;
	135	2	15.242	14.277	0	0	1	1.06642	-2.01839219	220	4	1.11	0.95	91.3654	-0.0000	0.0000	0.0000;
	136	1	0	0	0	0	1	1.08990656	-2.99331705	220	4	1.11	0.95	90.9609	-0.3853	0.0000	0.0000;
	137	1	0	0	0	0	1	1.09015905	-2.35558014	220	4	1.11	0.95	90.6905	-0.2757	0.0000	0.0000;
	138	1	0	0	0	0	1	1.0118182	-2.25158264	400	4	1.05	0.95	91.1851	-0.2239	0.0000	0.0000;
	139	1	0	0	0	0	1	1.01184002	-2.25430939	400	4	1.05	0.95	91.1863	-0.2241	0.0000	0.0000;
	140	1	0	0	0	0	1	1.07063522	-7.20388952	220	4	1.11	0.95	93.9426	-0.2038	0.0000	0.0000;
	141	1	0	0	0	0	1	1.08568921	-6.51620233	220	4	1.11	0.95	94.2776	0.0247	0.0000	0.0000;
	142	1	0	0	0	0	1	1.08568921	-6.51620233	220	4	1.11	0.95	94.2776	0.0247	0.0000	0.0000;
	143	1	0	0	0	0	1	1.08872189	-6.311208	220	4	1.11	0.95	93.6117	-0.4728	0.0000	0.0000;
	144	1	0	0	0	0	1	1.08548441	-3.50737692	220	4	1.11	0.95	91.1515	-0.2253	0.0000	0.0000;
	145	1	0	0	0	0	1	1.08548441	-3.50737692	220	4	1.11	0.95	91.1515	-0.2253	0.0000	0.0000;
	146	1	7.636	13.257	0	0	1	1.05773288	-3.70450182	220	4	1.11	0.95	92.0820	0.0139	0.0000	0.0000;
	147	1	0	0	0	0	1	1.05778714	-3.70244829	220	4	1.11	0.95	92.0799	0.0134	0.0000	0.0000;
	148	2	10.87	14.867	0	0	1	1.09091	-5.67519791	220	4	1.11	0.95	93.8293	-0.0074	0.0000	0.0000;
	149	1	0	0	0	0	1	1.09086374	-5.68623618	220	4	1.11	0.95	93.8358	-0.0086	0.0000	0.0000;
	150	2	10.989	15	0	0	1	1.01688	-8.43641847	400	4	1.05	0.95	94.4951	-0.0000	0.0000	0.0000;
	151	2	20.672	21.479	0	0	1	1.01688	-8.43381024	400	4	1.05	0.95	94.4943	-0.0004	0.0000	0.0000;
	152	1	0	0	0	0	1	1.07294356	-6.87868542	220	4	1.11	0.95	93.9336	-0.2218	0.0000	0.0000;
	153	1	0	0	0	0	1	1.08919516	-4.49901495	220	4	1.11	0.95	92.2945	-0.9851	0.0000	0.0000;
	154	1	0	0	0	0	1	1.08921067	-4.50164927	220	4	1.11	0.95	92.2953	-0.9815	0.0000	0.0000;
	155	2	0	0	0	0	1	1.08864	-0.936626688	220	4	1.11	0.95	90.1696	-0.0449	0.0000	0.0000;
	156	2	13.87	33	0	0	1	1.08864	-0.930596131	220	4	1.11	0.95	90.1689	-0.0454	0.0000	0.0000;
	157	1	0	0	0	0	1	0.998506253	0.00541240368	400	4	1.05	0.95	90.2541	-0.0039	0.0000	0.0000;
	158	2	9.989	25	0	0	1	0.99847	0.0101624831	400	4	1.05	0.95	90.2525	-0.0033	0.0000	0.0000;
	159	1	0	0	0	0	1	1.09023277	-6.52525696	220	4	1.11	0.95	94.2231	-0.0428	0.0000	0.0000;
	160	1	0	0	0	0	1	1.09023277	-6.52525696	220	4	1.11	0.95	94.2231	-0.0428	0.0000	0.0000;
	161	1	0	0	0	0	1	1.01649044	-2.91234208	400	4	1.05	0.95	91.4175	-0.2802	0.0000	0.0000;
	162	1	0	0	0	0	1	1.01674539	-2.381073	400	4	1.05	0.95	91.2251	-0.2678	0.0000	0.0000;
	163	1	0	0	0	0	1	1.01674215	-2.38069716	400	4	1.05	0.95	91.2250	-0.2678	0.0000	0.0000;
	164	2	11.664	11	0	0	1	1.05768	-3.78224497	220	4	1.11	0.95	92.1080	-0.0000	0.0000	0.0000;
	165	2	11.564	10.667	0	0	1	1.05768	-3.79703191	220	4	1.11	0.95	92.1152	-0.0002	0.0000	0.0000;
	166	1	0	0	0	0	1	1.05768	-3.79703191	220	4	1.11	0.95	92.1152	-0.0002	0.0000	0.0000;
	167	1	0	0	0	0	1	1.07587437	-11.5145786	220	4	1.11	0.95	96.2459	-0.3679	0.0000	0.0000;
	168	1	0	0	0	0	1	1.0849855	-6.57666035	220	4	1.11	0.95	94.3017	0.0429	0.0000	0.0000;
	169	1	0	0	0	0	1	1.07996839	-7.90549116	220	4	1.11	0.95	94.3401	-0.3672	0.0000	0.0000;
	170	1	0	0	0	0	1	1.07997157	-7.91162627	220	4	1.11	0.95	94.3422	-0.3673	0.0000	0.0000;
	171	1	0	0	0	0	1	1.00370887	-8.25388769	400	4	1.05	0.95	94.4134	-0.2652	0.0000	0.0000;
	172	1	0	0	0	0	1	1.00370887	-8.25388769	400	4	1.05	0.95	94.4134	-0.2652	0.0000	0.0000;
	173	1	0	0	0	0	1	1.0753492	-5.0304991	220	4	1.11	0.95	92.7843	-0.1592	0.0000	0.0000;
	174	1	0	0	0	0	1	1.07535896	-5.02817235	220	4	1.11	0.95	92.7836	-0.1585	0.0000	0.0000;
	175	1	0	0	0	0	1	1.05801709	-5.91528009	220	4	1.11	0.95	92.8329	-0.0759	0.0000	0.0000;
	176	1	0	0	0	0	1	1.08935672	-2.93419573	220	4	1.11	0.95	90.9932	-0.3999	0.0000	0.0000;
	177	1	0	0	0	0	1	1.08936525	-2.93298798	220	4	1.11	0.95	90.9935	-0.4011	0.0000	0.0000;
	178	1	0	0	0	0	1	1.09012245	-3.13738214	220	4	1.11	0.95	91.1245	-0.7002	1510.5743	0.0000;
	179	1	0	0	0	0	1	1.09012245	-3.13738214	220	4	1.11	0.95	91.1245	-0.7002	0.0000	0.0000;
	180	2	3.13	1.5	0	0	1	1.09138	-3.55911622	220	4	1.11	0.95	91.8736	-1.4635	3217.2702	0.0000;
	181	1	0	0	0	0	1	1.07619475	-5.33374309	220	4	1.11	0.95	92.8581	-0.3246	0.0000	0.0000;
	182	1	0	0	0	0	1	1.05120975	-10.7162282	220	5	1.11	0.95	95.7641	0.0476	0.0000	0.0000;
	183	1	0	0	0	0	1	1.06513507	-14.9443096	220	5	1.11	0.95	96.9396	-0.0429	0.0000	0.0000;
	184	1	0	0	0	0	1	1.0020584	-14.5285031	400	5	1.05	0.95	96.7166	0.0058	0.0000	0.0000;
	185	1	0	0	0	0	1	1.00209725	-14.5195846	400	5	1.05	0.95	96.7128	0.0058	0.0000	0.0000;
	186	1	0	0	0	0	1	0.994503491	-17.5609259	400	5	1.05	0.95	97.9087	-0.0415	0.0000	0.0000;
	187	1	0	0	0	0	1	0.994520574	-17.5657302	400	5	1.05	0.95	97.9110	-0.0420	0.0000	0.0000;
	188	1	0	0	0	0	1	1.05845604	-16.3097994	220	5	1.11	0.95	98.0998	-0.0701	0.0000	0.0000;
	189	1	0	0	0	0	1	1.05848448	-16.3111605	220	5	1.11	0.95	98.1000	-0.0706	0.0000	0.0000;
	190	1	0	0	0	0	1	1.06210385	-11.4413587	220	5	1.11	0.95	96.6631	-0.0479	0.0000	0.0000;
	191	1	0	0	0	0	1	1.0620682	-11.4452583	220	5	1.11	0.95	96.6619	-0.0478	0.0000	0.0000;
	192	1	0	0	0	0	1	0.993069896	-13.243461	400	5	1.05	0.95	96.1553	0.0868	0.0000	0.0000;
	193	1	0	0	0	0	1	1.05169995	-10.2491104	220	5	1.11	0.95	95.6728	0.0611	0.0000	0.0000;
	194	1	0	0	0	0	1	1.05170572	-10.2445464	220	5	1.11	0.95	95.6729	0.0610	0.0000	0.0000;
	195	1	0	0	0	0	1	1.00540475	-17.3155014	400	5	1.05	0.95	98.0356	-0.1232	0.0000	0.0000;
	196	1	0	0	0	0	1	1.00541179	-17.314774	400	5	1.05	0.95	98.0359	-0.1231	0.0000	0.0000;
	197	1	0	0	0	0	1	1.04881276	-14.2291	220	5	1.11	0.95	97.5431	-0.0369	0.0000	0.0000;
	198	1	0	0	0	0	1	1.04883134	-14.2287728	220	5	1.11	0.95	97.5417	-0.0368	0.0000	0.0000;
	199	1	0	0	0	-117	1	0.988357429	-16.5263085	400	5	1.05	0.95	97.4200	0.1085	0.0000	0.0000;
	200	1	0	0	0	0	1	0.988424798	-16.5181962	400	5	1.05	0.95	97.4168	0.1079	0.0000	0.0000;
...
];

%% generator data
%	bus	Pg	Qg	Qmax	Qmin	Vg	mBase	status	Pmax	Pmin	Pc1	Pc2	Qc1min	Qc1max	Qc2min	Qc2max	ramp_agc	ramp_10	ramp_30	ramp_q	apf	mu_Pmax	mu_Pmin	mu_Qmax	mu_Qmin
mpc.gen = [
	17	0	0	120	-22	1.07567	241.9	0	210	140	0	0	0	0	0	0	0	0	0	0	0	0.0000	0.0000	0.0000	0.0000;
	17	0	0	120	-22	1.07567	233.2	0	200	140	0	0	0	0	0	0	0	0	0	0	0	0.0000	0.0000	0.0000	0.0000;
	26	370	-5.80128732	190	-19	1.08527	415.9	1	370	290	0	0	0	0	0	0	0	0	0	0	0	13.2018	0.0000	0.0000	0.0000;
	27	360	2.05108039	190	-19	1.08827	407.1	1	360	290	0	0	0	0	0	0	0	0	0	0	0	13.7497	0.0000	0.0000	0.0653;
	27	0	0	190	-19	1.08827	407.1	0	360	290	0	0	0	0	0	0	0	0	0	0	0	0.0000	0.0000	0.0000	0.0000;
	27	0	0	190	-19	1.08827	415.9	0	370	290	0	0	0	0	0	0	0	0	0	0	0	0.0000	0.0000	0.0000	0.0000;
	26	370	-5.80128732	190	-19	1.08527	415.9	1	370	290	0	0	0	0	0	0	0	0	0	0	0	13.2018	0.0000	0.0000	0.0000;
	28	375.617619	-11.3389038	190	-19	1.027	415.9	1	370	290	0	0	0	0	0	0	0	0	0	0	0	14.1156	0.0000	0.0000	0.0851;
	28	0	0	190	-19	1.027	415.9	0	370	290	0	0	0	0	0	0	0	0	0	0	0	0.0000	0.0000	0.0000	0.0000;
	28	0	0	190	-19	1.027	415.9	0	370	290	0	0	0	0	0	0	0	0	0	0	0	0.0000	0.0000	0.0000	0.0000;
	29	0	0	190	-19	1.027	415.9	0	370	290	0	0	0	0	0	0	0	0	0	0	0	0.0000	0.0000	0.0000	0.0000;
	29	370	-18.6251358	190	-19	1.027	415.9	1	370	290	0	0	0	0	0	0	0	0	0	0	0	14.1126	0.0000	0.0000	0.0850;
	29	370	-18.6251358	190	-19	1.027	415.9	1	370	290	0	0	0	0	0	0	0	0	0	0	0	14.1126	0.0000	0.0000	0.0850;
	42	130	0.678841093	135	-34	1.09086	253.9	1	215	130	0	0	0	0	0	0	0	0	0	0	0	0.0000	10.3075	0.0000	1.1989;
	42	0	0	130	-34	1.09086	242.7	0	205	135	0	0	0	0	0	0	0	0	0	0	0	0.0000	0.0000	0.0000	0.0000;
	42	0	0	145	-34	1.09086	267.7	0	225	110	0	0	0	0	0	0	0	0	0	0	0	0.0000	0.0000	0.0000	0.0000;
	43	0	0	145	-34	1.09091	267.7	0	225	120	0	0	0	0	0	0	0	0	0	0	0	0.0000	0.0000	0.0000	0.0000;
	43	130	-21.9996336	145	-34	1.09091	267.7	1	225	130	0	0	0	0	0	0	0	0	0	0	0	0.0000	10.3102	0.0000	1.2022;
	43	0	0	130	-34	1.09091	242.7	0	205	135	0	0	0	0	0	0	0	0	0	0	0	0.0000	0.0000	0.0000	0.0000;
	44	255	-42.1676302	363	-47	1.04817	646.5	1	535	255	0	0	0	0	0	0	0	0	0	0	0	0.0000	10.0534	0.0000	1.1649;
	44	0	0	348	-100	1.04817	659.3	0	560	250	0	0	0	0	0	0	0	0	0	0	0	0.0000	0.0000	0.0000	0.0000;
	54	0	0	104	-1	1.09127	247.9	0	225	129	0	0	0	0	0	0	0	0	0	0	0	0.0000	0.0000	0.0000	0.0000;
	55	129	-13.8260282	130	-16	1.09126	259.9	1	225	129	0	0	0	0	0	0	0	0	0	0	0	0.0000	13.5189	0.0000	1.3710;
	54	0	0	130	-16	1.09127	259.9	0	225	129	0	0	0	0	0	0	0	0	0	0	0	0.0000	0.0000	0.0000	0.0000;
	56	129	-14.8642204	130	-16	1.03933	259.9	1	225	129	0	0	0	0	0	0	0	0	0	0	0	0.0000	13.2824	0.0000	1.1044;
	57	129	-10.4053981	130	-16	1.03932	259.9	1	225	129	0	0	0	0	0	0	0	0	0	0	0	0.0000	13.2810	0.0000	1.1042;
	57	0	0	104	-1	1.03932	247.9	0	225	129	0	0	0	0	0	0	0	0	0	0	0	0.0000	0.0000	0.0000	0.0000;
	57	0	0	130	-16	1.03932	259.9	0	225	129	0	0	0	0	0	0	0	0	0	0	0	0.0000	0.0000	0.0000	0.0000;
	58	39.7	30.1863466	30	0	1.09864	57.7	1	39.7	39.7	0	0	0	0	0	0	0	0	0	0	0	91.6559	0.0000	0.0000	1.9664;
	78	140	2.07221249	123	-15	1.06723	256.4	1	225	140	0	0	0	0	0	0	0	0	0	0	0	0.0000	3.2914	0.0000	0.0000;
	78	140	2.07221249	123	-15	1.06723	256.4	1	225	140	0	0	0	0	0	0	0	0	0	0	0	0.0000	3.2914	0.0000	0.0000;
	79	0	0	123	-15	1.07077	252	0	220	140	0	0	0	0	0	0	0	0	0	0	0	0.0000	0.0000	0.0000	0.0000;
	79	0	0	123	-15	1.07077	256.4	0	225	140	0	0	0	0	0	0	0	0	0	0	0	0.0000	0.0000	0.0000	0.0000;
	79	140	5.76118004	123	-15	1.07077	256.4	1	225	140	0	0	0	0	0	0	0	0	0	0	0	0.0000	2.9944	0.0000	0.0433;
	82	380	-35.3037148	232	-31	1.0186	445.2	1	380	220	0	0	0	0	0	0	0	0	0	0	0	0.7525	0.0000	0.0000	0.1757;
	82	0	0	228	-30	1.0186	434.6	0	370	220	0	0	0	0	0	0	0	0	0	0	0	0.0000	0.0000	0.0000	0.0000;
	98	8.998	1.61344985	1	0	1.07416	12	1	8.998	8.998	0	0	0	0	0	0	0	0	0	0	0	92.1552	0.0000	0.0000	0.1393;
	98	5.998	1.61344985	1	0	1.07416	6.1	1	5.998	5.998	0	0	0	0	0	0	0	0	0	0	0	92.1552	0.0000	0.0000	0.1393;
	104	134	63.513795	123	-15	1.06927	256.4	1	225	134	0	0	0	0	0	0	0	0	0	0	0	0.0000	0.6478	0.0000	0.0000;
	105	0	0	123	-15	1.06917	256.4	0	225	134	0	0	0	0	0	0	0	0	0	0	0	0.0000	0.0000	0.0000	0.0000;
	106	79	2.89556475	80	-2	1.06843	144.2	1	120	79	0	0	0	0	0	0	0	0	0	0	0	0.0000	2.2938	0.0000	0.0000;
	107	0	0	80	-2	1.0684	144.2	0	120	79	0	0	0	0	0	0	0	0	0	0	0	0.0000	0.0000	0.0000	0.0000;
	116	0	0	90	-20	1.07086	150	0	120	90	0	0	0	0	0	0	0	0	0	0	0	0.0000	0.0000	0.0000	0.0000;
	117	70	3.03745964	82	-2	1.07082	145.3	1	120	70	0	0	0	0	0	0	0	0	0	0	0	0.0000	4.9443	0.0000	0.0883;
	118	0	0	40	0	1.07063	117	0	110	80	0	0	0	0	0	0	0	0	0	0	0	0.0000	0.0000	0.0000	0.0000;
	125	0	0	135	-35	1.0744	253.9	0	215	160	0	0	0	0	0	0	0	0	0	0	0	0.0000	0.0000	0.0000	0.0000;
	126	0	0	140	-35	1.07421	265	0	225	140	0	0	0	0	0	0	0	0	0	0	0	0.0000	0.0000	0.0000	0.0000;
	126	215	-43.8504266	135	-35	1.07421	253.9	1	215	160	0	0	0	0	0	0	0	0	0	0	0	0.3914	0.0000	0.0000	0.0514;
	127	225	-34.7242115	140	-40	1.01239	265	1	225	140	0	0	0	0	0	0	0	0	0	0	0	0.1379	0.0000	0.0000	0.1135;
	127	0	0	137	-40	1.01239	259.2	0	220	160	0	0	0	0	0	0	0	0	0	0	0	0.0000	0.0000	0.0000	0.0000;
	132	0	25.1089667	40	-38	1.06355	131.2	1	0	0	0	0	0	0	0	0	0	0	0	0	0	94.3590	0.0000	0.0000	0.0000;
	132	0	0	40	-38	1.06355	131.2	0	0	0	0	0	0	0	0	0	0	0	0	0	0	0.0000	0.0000	0.0000	0.0000;
	133	0	0	40	-38	1.06355	131.2	0	0	0	0	0	0	0	0	0	0	0	0	0	0	0.0000	0.0000	0.0000	0.0000;
	133	0	22.2598969	40	-38	1.06355	131.2	1	0	0	0	0	0	0	0	0	0	0	0	0	0	94.3608	0.0000	0.0000	0.0000;
	134	0	0	90	0	1.0664	150	0	120	100	0	0	0	0	0	0	0	0	0	0	0	0.0000	0.0000	0.0000	0.0000;
	134	0	0	90	0	1.0664	150	0	120	100	0	0	0	0	0	0	0	0	0	0	0	0.0000	0.0000	0.0000	0.0000;
	135	100	26.0574464	90	0	1.06642	150	1	120	100	0	0	0	0	0	0	0	0	0	0	0	0.0000	1.0646	0.0000	0.0000;
	146	0	0	12	0	1.05776	51.4	0	50	30	0	0	0	0	0	0	0	0	0	0	0	0.0000	0.0000	0.0000	0.0000;
	146	0	0	12	0	1.05776	51.4	0	50	30	0	0	0	0	0	0	0	0	0	0	0	0.0000	0.0000	0.0000	0.0000;
	147	0	0	90	0	1.05781	150	0	120	90	0	0	0	0	0	0	0	0	0	0	0	0.0000	0.0000	0.0000	0.0000;
	148	0	0	149	-48	1.09091	267.4	0	222	90	0	0	0	0	0	0	0	0	0	0	0	0.0000	0.0000	0.0000	0.0000;
	148	0	0	149	-48	1.09091	253.4	0	205	135	0	0	0	0	0	0	0	0	0	0	0	0.0000	0.0000	0.0000	0.0000;
	148	0	0	149	-48	1.09091	253.4	0	205	135	0	0	0	0	0	0	0	0	0	0	0	0.0000	0.0000	0.0000	0.0000;
	148	90	68.571867	149	-48	1.09091	267.4	1	222	90	0	0	0	0	0	0	0	0	0	0	0	0.0000	22.1807	0.0000	0.0074;
	150	90	28.3103638	123	-23	1.01688	253.8	1	222	90	0	0	0	0	0	0	0	0	0	0	0	0.0000	21.5149	0.0000	0.0000;
	151	90	-15.5590411	149	-48	1.01688	267.4	1	222	90	0	0	0	0	0	0	0	0	0	0	0	0.0000	21.5157	0.0000	0.0004;
	151	0	0	123	-23	1.01688	253.8	0	222	90	0	0	0	0	0	0	0	0	0	0	0	0.0000	0.0000	0.0000	0.0000;
	155	94	9.45537307	149	-53	1.08864	278.3	1	235	94	0	0	0	0	0	0	0	0	0	0	0	0.0000	8.6704	0.0000	0.0449;
	155	0	0	149	-53	1.08864	278.3	0	235	94	0	0	0	0	0	0	0	0	0	0	0	0.0000	0.0000	0.0000	0.0000;
	155	0	0	120	0	1.08864	287.3	0	261	104	0	0	0	0	0	0	0	0	0	0	0	0.0000	0.0000	0.0000	0.0000;
	155	0	0	132	-40	1.08864	292.5	0	261	104	0	0	0	0	0	0	0	0	0	0	0	0.0000	0.0000	0.0000	0.0000;
	156	0	0	120	0	1.08864	287.3	0	261	104	0	0	0	0	0	0	0	0	0	0	0	0.0000	0.0000	0.0000	0.0000;
	156	130	0.883320061	117	-22	1.08864	236	1	205	130	0	0	0	0	0	0	0	0	0	0	0	0.0000	8.6711	0.0000	0.0454;
	156	120	1.23703804	109	-20	1.08864	233.1	1	206	120	0	0	0	0	0	0	0	0	0	0	0	0.0000	8.6711	0.0000	0.0454;
	156	0	0	109	-20	1.08864	233.1	0	206	120	0	0	0	0	0	0	0	0	0	0	0	0.0000	0.0000	0.0000	0.0000;
	158	120	-19.1407573	109	-20	0.99847	233.1	1	206	120	0	0	0	0	0	0	0	0	0	0	0	0.0000	8.5875	0.0000	0.0033;
	164	0	0	104	-23	1.05768	225.4	0	200	150	0	0	0	0	0	0	0	0	0	0	0	0.0000	0.0000	0.0000	0.0000;
	164	200	-27.0111623	104	-23	1.05768	225.4	1	200	150	0	0	0	0	0	0	0	0	0	0	0	2.8880	0.0000	0.0000	0.0000;
	165	200	-24.2111786	104	-23	1.05768	225.4	1	200	150	0	0	0	0	0	0	0	0	0	0	0	2.8952	0.0000	0.0000	0.0002;
	165	0	0	104	-23	1.05768	225.4	0	200	150	0	0	0	0	0	0	0	0	0	0	0	0.0000	0.0000	0.0000	0.0000;
	180	120	-0.566024946	110	0	1.09138	219.5	1	120	120	0	0	0	0	0	0	0	0	0	0	0	91.8736	0.0000	0.0000	1.4635;
	205	0	-30.2249063	80	-30.001	0.98664	196.1	1	0	0	0	0	0	0	0	0	0	0	0	0	0	98.1653	0.0000	0.0000	0.0000;
	205	0	-30.2249063	80	-30.001	0.98664	196.1	1	0	0	0	0	0	0	0	0	0	0	0	0	0	98.1653	0.0000	0.0000	0.0000;
	205	0	0	110	-60	0.98664	210.1	0	0	0	0	0	0	0	0	0	0	0	0	0	0	0.0000	0.0000	0.0000	0.0000;
	206	0	0	110	-60	0.98669	210.1	0	0	0	0	0	0	0	0	0	0	0	0	0	0	0.0000	0.0000	0.0000	0.0000;
	215	23	7.31130534	20	0	1.09091	58.5	1	23	23	0	0	0	0	0	0	0	0	0	0	0	93.5881	0.0000	0.0000	0.9775;
	215	0	0	20	0	1.09091	53.9	0	0	0	0	0	0	0	0	0	0	0	0	0	0	0.0000	0.0000	0.0000	0.0000;
	215	0	0	20	0	1.09091	53.9	0	0	0	0	0	0	0	0	0	0	0	0	0	0	0.0000	0.0000	0.0000	0.0000;
	215	7	7.31130534	20	0	1.09091	30.5	1	7	7	0	0	0	0	0	0	0	0	0	0	0	93.5881	0.0000	0.0000	0.9775;
	221	1.55	0.294568431	1	0	1.0868	2.3	1	1.55	1.55	0	0	0	0	0	0	0	0	0	0	0	91.7879	0.0000	0.0000	0.2327;
	222	1.55	-0.0704385543	1	0	1.0748	2.3	1	1.55	1.55	0	0	0	0	0	0	0	0	0	0	0	91.9673	0.0000	0.0000	0.0000;
	240	6.3	2.56167797	6	0	1.05704	9.8	1	6.3	6.3	0	0	0	0	0	0	0	0	0	0	0	95.2580	0.0000	0.0000	0.0000;
	247	370	-11.3246021	190	-19	1.02878	415.9	1	370	290	0	0	0	0	0	0	0	0	0	0	0	13.5459	0.0000	0.0018	0.0000;
	310	0	0	7	0	1.07912	27.9	0	0	0	0	0	0	0	0	0	0	0	0	0	0	0.0000	0.0000	0.0000	0.0000;
	310	0	0	7	0	1.07912	27.9	0	0	0	0	0	0	0	0	0	0	0	0	0	0	0.0000	0.0000	0.0000	0.0000;
	310	11	3.56216767	7	4	1.07912	30.8	1	11	11	0	0	0	0	0	0	0	0	0	0	0	90.9502	0.0000	0.0545	0.0000;
	310	0	0	7	0	1.07912	27.9	0	0	0	0	0	0	0	0	0	0	0	0	0	0	0.0000	0.0000	0.0000	0.0000;
	310	0	0	6	0	1.07912	27.7	0	0	0	0	0	0	0	0	0	0	0	0	0	0	0.0000	0.0000	0.0000	0.0000;
	310	0	0	7	0	1.07912	27.9	0	0	0	0	0	0	0	0	0	0	0	0	0	0	0.0000	0.0000	0.0000	0.0000;
	310	0	0	7	0	1.07912	27.9	0	0	0	0	0	0	0	0	0	0	0	0	0	0	0.0000	0.0000	0.0000	0.0000;
	311	0	0	15	0	1.07689	36.7	0	0	0	0	0	0	0	0	0	0	0	0	0	0	0.0000	0.0000	0.0000	0.0000;
	311	0	0	15	0	1.07689	57	0	0	0	0	0	0	0	0	0	0	0	0	0	0	0.0000	0.0000	0.0000	0.0000;
	312	16	5.84782611	15	0	1.07487	36.7	1	16	16	0	0	0	0	0	0	0	0	0	0	0	91.4685	0.0000	0.0000	0.0000;
	312	0	0	15	0	1.07487	57	0	0	0	0	0	0	0	0	0	0	0	0	0	0	0.0000	0.0000	0.0000	0.0000;
	314	25	8.67403804	20	0	1.08518	53.9	1	25	25	0	0	0	0	0	0	0	0	0	0	0	90.6475	0.0000	0.0000	0.0000;
	314	0	0	20	0	1.08518	53.9	0	0	0	0	0	0	0	0	0	0	0	0	0	0	0.0000	0.0000	0.0000	0.0000;
	315	0	0	40	0	1.07925	107.7	0	0	0	0	0	0	0	0	0	0	0	0	0	0	0.0000	0.0000	0.0000	0.0000;
	323	2.5	1.11944265	3	0	1.08432	4.1	1	2.5	2.5	0	0	0	0	0	0	0	0	0	0	0	90.7163	0.0000	0.0092	0.0000;
	366	40	9.8804736	12	0	1.06091	47.8	1	40	40	0	0	0	0	0	0	0	0	0	0	0	93.8344	0.0000	0.0000	0.0000;
	367	40	9.99982105	12	0	1.06011	47.8	1	40	40	0	0	0	0	0	0	0	0	0	0	0	93.4746	0.0000	0.0000	0.0000;
	368	40	9.85485121	12	0	1.06213	47.8	1	40	40	0	0	0	0	0	0	0	0	0	0	0	93.6481	0.0000	0.0000	0.0000;
	369	40	9.7784208	12	0	1.06706	47.8	1	40	40	0	0	0	0	0	0	0	0	0	0	0	93.3527	0.0000	0.0000	0.0144;
	386	140	-3.71916665	138	-47	1.08555	251.3	1	210	140	0	0	0	0	0	0	0	0	0	0	0	0.0000	18.7728	0.0000	0.0000;
	386	0	0	10	0	1.08555	26.9	0	25	12	0	0	0	0	0	0	0	0	0	0	0	0.0000	0.0000	0.0000	0.0000;
	387	10	4.77693865	10	0	1.06898	19.7	1	17	10	0	0	0	0	0	0	0	0	0	0	0	0.0000	17.4105	0.0000	0.1532;
	444	1.5	1.00983127	2	0	1.03619	3.6	1	1.5	1.5	0	0	0	0	0	0	0	0	0	0	0	90.2706	0.0000	0.0000	0.0000;
	453	5.21	1.63896826	2	0	1.0809	6.1	1	5.21	5.21	0	0	0	0	0	0	0	0	0	0	0	92.3977	0.0000	0.0000	0.3884;
	453	0	0	2	0	1.0809	6.1	0	0	0	0	0	0	0	0	0	0	0	0	0	0	0.0000	0.0000	0.0000	0.0000;
	486	1.4	1.08583212	0.7	0	1.03025	1.7	1	1.4	1.4	0	0	0	0	0	0	0	0	0	0	0	91.1651	0.0000	0.0153	0.0000;
	537	25	8.38073167	14	0	1.06135	53.9	1	25	25	0	0	0	0	0	0	0	0	0	0	0	93.9619	0.0000	0.0000	0.1009;
	537	0	0	14	0	1.06135	34.9	0	0	0	0	0	0	0	0	0	0	0	0	0	0	0.0000	0.0000	0.0000	0.0000;
	537	0	0	14	0	1.06135	34	0	0	0	0	0	0	0	0	0	0	0	0	0	0	0.0000	0.0000	0.0000	0.0000;
	537	0	0	14	0	1.06135	105.9	0	0	0	0	0	0	0	0	0	0	0	0	0	0	0.0000	0.0000	0.0000	0.0000;
	537	0	0	14	0	1.06135	105.9	0	0	0	0	0	0	0	0	0	0	0	0	0	0	0.0000	0.0000	0.0000	0.0000;
	538	20	7.72004261	17.5	0	1.06273	36.5	1	20	20	0	0	0	0	0	0	0	0	0	0	0	93.8344	0.0000	0.0000	0.0782;
	538	20	7.72004261	17.5	0	1.06273	35.6	1	20	20	0	0	0	0	0	0	0	0	0	0	0	93.8344	0.0000	0.0000	0.0782;
	538	0	0	17.5	0	1.06273	126.2	0	0	0	0	0	0	0	0	0	0	0	0	0	0	0.0000	0.0000	0.0000	0.0000;
	538	0	0	17.5	0	1.06273	106.4	0	0	0	0	0	0	0	0	0	0	0	0	0	0	0.0000	0.0000	0.0000	0.0000;
	552	1.4	0.675053826	0.7	0	1.05556	1.7	1	1.4	1.4	0	0	0	0	0	0	0	0	0	0	0	94.5110	0.0000	0.0144	0.0000;
	560	22.5	7.91659811	10	0	1.05752	35.4	1	22.5	22.5	0	0	0	0	0	0	0	0	0	0	0	94.3389	0.0000	0.0000	0.0000;
	560	0	0	5	0	1.05752	28.4	0	0	0	0	0	0	0	0	0	0	0	0	0	0	0.0000	0.0000	0.0000	0.0000;
	560	0	0	5	0	1.05752	26.5	0	0	0	0	0	0	0	0	0	0	0	0	0	0	0.0000	0.0000	0.0000	0.0000;
	560	0	0	5	0	1.05752	30.4	0	0	0	0	0	0	0	0	0	0	0	0	0	0	0.0000	0.0000	0.0000	0.0000;
	560	0	0	5	0	1.05752	34.4	0	0	0	0	0	0	0	0	0	0	0	0	0	0	0.0000	0.0000	0.0000	0.0000;
	561	22.5	7.48492774	10	0	1.0595	35.4	1	22.5	22.5	0	0	0	0	0	0	0	0	0	0	0	94.1928	0.0000	0.0000	0.0742;
	561	0	0	5	0	1.0595	34.4	0	0	0	0	0	0	0	0	0	0	0	0	0	0	0.0000	0.0000	0.0000	0.0000;
	561	0	0	5	0	1.0595	26.5	0	0	0	0	0	0	0	0	0	0	0	0	0	0	0.0000	0.0000	0.0000	0.0000;
	561	0	0	5	0	1.0595	34.4	0	0	0	0	0	0	0	0	0	0	0	0	0	0	0.0000	0.0000	0.0000	0.0000;
	574	1	-0.179796083	4	0	1.07812	8.9	1	1	1	0	0	0	0	0	0	0	0	0	0	0	91.4956	0.0000	0.0000	0.0000;
	627	76	-0.0714695496	30	0	1.09176	97.7	1	76	76	0	0	0	0	0	0	0	0	0	0	0	88.4239	0.0000	0.0000	1.5661;
	627	30	-0.0714695496	30	0	1.09176	46.8	1	30	30	0	0	0	0	0	0	0	0	0	0	0	88.4239	0.0000	0.0000	1.5661;
	665	130	36.3331545	145	-34	1.09108	267.7	1	225	130	0	0	0	0	0	0	0	0	0	0	0	0.0000	11.0839	0.0000	0.5354;
	666	0	0	145	-34	1.09079	267.7	0	225	130	0	0	0	0	0	0	0	0	0	0	0	0.0000	0.0000	0.0000	0.0000;
	686	140	0.0133985906	30	0	1.09115	182.5	1	140	140	0	0	0	0	0	0	0	0	0	0	0	90.0530	0.0000	0.0000	2.7870;
	686	47	0.0133985906	30	0	1.09115	77.5	1	47	47	0	0	0	0	0	0	0	0	0	0	0	90.0530	0.0000	0.0000	2.7870;
	692	1.98	0.891001912	1	0	1.09065	2.7	1	1.98	1.98	0	0	0	0	0	0	0	0	0	0	0	90.7605	0.0000	0.0000	2.7235;
	717	1.32	1.69554004	1.3	0	1.08239	10.1	1	1.32	1.32	0	0	0	0	0	0	0	0	0	0	0	91.7403	0.0000	0.0000	1.5536;
	741	129	-10.1157298	130	-16	1.09099	259.9	1	225	129	0	0	0	0	0	0	0	0	0	0	0	0.0000	14.4117	0.0000	1.6087;
	764	82	-0.725968689	30	0	1.06965	105.4	1	82	82	0	0	0	0	0	0	0	0	0	0	0	91.3594	0.0000	0.0000	1.0841;
	793	1	0.184501002	0.5	0	1.04724	8.3	1	1	1	0	0	0	0	0	0	0	0	0	0	0	93.8724	0.0000	0.0000	1.0621;
	797	0	0	23	0	1.0493	71.9	0	0	0	0	0	0	0	0	0	0	0	0	0	0	0.0000	0.0000	0.0000	0.0000;
	797	0	0	23	0	1.0493	71.9	0	0	0	0	0	0	0	0	0	0	0	0	0	0	0.0000	0.0000	0.0000	0.0000;
	797	0	0	11	0	1.0493	32.9	0	0	0	0	0	0	0	0	0	0	0	0	0	0	0.0000	0.0000	0.0000	0.0000;
	797	0	0	10	0	1.0493	32.6	0	0	0	0	0	0	0	0	0	0	0	0	0	0	0.0000	0.0000	0.0000	0.0000;
	808	0	0	10	0	1.07568	125.4	0	125	84	0	0	0	0	0	0	0	0	0	0	0	0.0000	0.0000	0.0000	0.0000;
	809	92	0.931352673	10	0	1.09118	125.4	1	125	92	0	0	0	0	0	0	0	0	0	0	0	0.0000	22.6822	0.0000	1.7147;
	846	14.996	7.34565724	8.1	0	1.07424	33	1	14.996	14.996	0	0	0	0	0	0	0	0	0	0	0	92.4459	0.0000	0.0000	0.7630;
	846	14.996	7.34565724	8.1	0	1.07424	33	1	14.996	14.996	0	0	0	0	0	0	0	0	0	0	0	92.4459	0.0000	0.0000	0.7630;
	846	0	0	0	0	1.07424	19	0	0	0	0	0	0	0	0	0	0	0	0	0	0	0.0000	0.0000	0.0000	0.0000;
	846	0	0	0	0	1.07424	19	0	0	0	0	0	0	0	0	0	0	0	0	0	0	0.0000	0.0000	0.0000	0.0000;
	878	34.99	4.35585227	41.2	0	1.08146	87.7	1	34.99	34.99	0	0	0	0	0	0	0	0	0	0	0	91.4588	0.0000	0.0000	0.0000;
	901	0	0	45	-10	1.07665	65.8	0	0	0	0	0	0	0	0	0	0	0	0	0	0	0.0000	0.0000	0.0000	0.0000;
	901	44.988	-11.387892	45	-10	1.07665	71.1	1	44.988	44.988	0	0	0	0	0	0	0	0	0	0	0	91.2640	0.0000	0.0000	0.0000;
	901	0	0	45	-10	1.07665	71.1	0	0	0	0	0	0	0	0	0	0	0	0	0	0	0.0000	0.0000	0.0000	0.0000;
	976	0	0	110	-40	1.08472	162.2	0	0	0	0	0	0	0	0	0	0	0	0	0	0	0.0000	0.0000	0.0000	0.0000;
	977	99.973	2.29489482	110	-40	1.08973	162.2	1	99.973	99.973	0	0	0	0	0	0	0	0	0	0	0	91.3097	0.0000	0.0000	0.0000;
	981	0	0	0	0	1.08908	16.8	0	0	0	0	0	0	0	0	0	0	0	0	0	0	0.0000	0.0000	0.0000	0.0000;
	1002	225.568	-24.2230658	240	-32	1.09091	454.5	1	386	220	0	0	0	0	0	0	0	0	0	0	0	0.0000	0.0000	0.0000	0.0976;
	1003	0	0	227	-30	1.08396	434.1	0	370	220	0	0	0	0	0	0	0	0	0	0	0	0.0000	0.0000	0.0000	0.0000;
	1007	5.998	1.2238836	1.447	0	1.08685	7.1	1	5.998	5.998	0	0	0	0	0	0	0	0	0	0	0	91.5495	0.0000	0.0651	0.0000;
	1006	3.999	0.433012476	0.447	0	1.08685	4	1	3.999	3.999	0	0	0	0	0	0	0	0	0	0	0	91.5486	0.0000	0.0654	0.0000;
	1007	3.999	0.378075999	0.447	0	1.08685	5	1	3.999	3.999	0	0	0	0	0	0	0	0	0	0	0	91.5495	0.0000	0.0651	0.0000;
	1007	0	0	0	0	1.08685	6	0	0	0	0	0	0	0	0	0	0	0	0	0	0	0.0000	0.0000	0.0000	0.0000;
	1008	0	0	110	-40	1.08742	174.1	0	0	0	0	0	0	0	0	0	0	0	0	0	0	0.0000	0.0000	0.0000	0.0000;
	1014	14.996	3.70927388	4.8	0	1.08325	20.6	1	14.996	14.996	0	0	0	0	0	0	0	0	0	0	0	92.3810	0.0000	0.0000	0.0255;
	1014	0	0	0	0	1.08325	12.8	0	0	0	0	0	0	0	0	0	0	0	0	0	0	0.0000	0.0000	0.0000	0.0000;
	1014	0	0	0	0	1.08325	12.5	0	0	0	0	0	0	0	0	0	0	0	0	0	0	0.0000	0.0000	0.0000	0.0000;
	1016	0	0	0	0	1.08029	20	0	0	0	0	0	0	0	0	0	0	0	0	0	0	0.0000	0.0000	0.0000	0.0000;
	1016	0	0	0	0	1.08029	19	0	0	0	0	0	0	0	0	0	0	0	0	0	0	0.0000	0.0000	0.0000	0.0000;
	1025	11.997	16.7658623	18	9	1.07158	30	1	11.997	11.997	0	0	0	0	0	0	0	0	0	0	0	94.3556	0.0000	0.0130	0.0000;
	1026	0	0	18	9	1.07151	30	0	0	0	0	0	0	0	0	0	0	0	0	0	0	0.0000	0.0000	0.0000	0.0000;
	1027	0	0	14	10.5	1.07147	32.2	0	0	0	0	0	0	0	0	0	0	0	0	0	0	0.0000	0.0000	0.0000	0.0000;
	1114	0	0	37.5	16.8	1.08691	62.5	0	0	0	0	0	0	0	0	0	0	0	0	0	0	0.0000	0.0000	0.0000	0.0000;
	1115	0	0	37.5	7.5	1.0759	62.5	0	0	0	0	0	0	0	0	0	0	0	0	0	0	0.0000	0.0000	0.0000	0.0000;
	1114	39.989	6.57784123	37.5	7.5	1.08691	62.5	1	39.989	39.989	0	0	0	0	0	0	0	0	0	0	0	91.9086	0.0000	0.0000	0.0133;
	1116	0	0	37.5	16.8	1.08062	62.5	0	0	0	0	0	0	0	0	0	0	0	0	0	0	0.0000	0.0000	0.0000	0.0000;
	1153	16.995	5.38032897	5.251	0	1.07018	30.5	1	16.995	16.995	0	0	0	0	0	0	0	0	0	0	0	93.1565	0.0000	0.0000	0.0103;
	1153	0	0	0	0	1.07018	6	0	0	0	0	0	0	0	0	0	0	0	0	0	0	0.0000	0.0000	0.0000	0.0000;
	1154	16.995	5.26144674	5.251	0	1.07027	30.5	1	16.995	16.995	0	0	0	0	0	0	0	0	0	0	0	93.1437	0.0000	0.0000	0.0117;
	1154	0	0	0	0	1.07027	25	0	0	0	0	0	0	0	0	0	0	0	0	0	0	0.0000	0.0000	0.0000	0.0000;
	1155	15.996	5.51822098	5.25	0	1.07285	30.5	1	15.996	15.996	0	0	0	0	0	0	0	0	0	0	0	92.7739	0.0000	0.0000	0.1178;
	1155	0	0	0	0	1.07285	6	0	0	0	0	0	0	0	0	0	0	0	0	0	0	0.0000	0.0000	0.0000	0.0000;
	1180	59.984	11.0930158	52.5	0	1.08018	87.5	1	59.984	59.984	0	0	0	0	0	0	0	0	0	0	0	91.6538	0.0000	0.0000	0.0000;
	1181	0	0	52.5	0	1.08122	87.5	0	0	0	0	0	0	0	0	0	0	0	0	0	0	0.0000	0.0000	0.0000	0.0000;
	1181	0	0	42	16.8	1.08122	65.3	0	0	0	0	0	0	0	0	0	0	0	0	0	0	0.0000	0.0000	0.0000	0.0000;
	1189	49.986	-0.842480023	0	0	1.07992	50	1	49.986	49.986	0	0	0	0	0	0	0	0	0	0	0	91.7678	0.0000	0.0267	0.0000;
	1247	9.997	1.83354584	2	0	1.07484	16.7	1	9.997	9.997	0	0	0	0	0	0	0	0	0	0	0	91.8830	0.0000	0.0000	0.0000;
	1247	0	0	0	0	1.07484	24	0	0	0	0	0	0	0	0	0	0	0	0	0	0	0.0000	0.0000	0.0000	0.0000;
	1248	0	0	0	0	1.07711	14.6	0	0	0	0	0	0	0	0	0	0	0	0	0	0	0.0000	0.0000	0.0000	0.0000;
	1248	0	0	0	0	1.07711	14.6	0	0	0	0	0	0	0	0	0	0	0	0	0	0	0.0000	0.0000	0.0000	0.0000;
...
];

%% branch data
%	fbus	tbus	r	x	b	rateA	rateB	rateC	ratio	angle	status	angmin	angmax	Pf	Qf	Pt	Qt	mu_Sf	mu_St	mu_angmin	mu_angmax
mpc.branch = [
	7	8	0.00064	0.0305	0	400	400	400	1.0435	-0.6	1	-360	360	-88.4584	-21.9588	88.5087	24.3528	0.0000	0.0000	0.0000	0.0000;
	26	28	0.00036	0.02519	0	500	500	500	1.0911	0	1	-360	360	133.8239	-127.3544	-133.6997	136.0438	0.0000	0.0000	0.0000	0.0000;
	27	29	0.00036	0.02519	0	500	500	500	1.0759	0	1	-360	360	26.6181	-62.5391	-26.6018	63.6765	0.0000	0.0000	0.0000	0.0000;
	39	41	0.00034	0.02097	0	500	500	500	1.0793	0	1	-360	360	-8.7166	-66.4091	8.7313	67.3172	0.0000	0.0000	0.0000	0.0000;
	42	45	0.00034	0.02097	0	500	500	500	1.0296	0	1	-360	360	-0.5670	57.0182	0.5769	-56.4108	0.0000	0.0000	0.0000	0.0000;
	54	56	0.00081	0.03	0	400	400	400	1.0501	0	1	-360	360	9.1747	-0.6463	-9.1740	0.6698	0.0000	0.0000	0.0000	0.0000;
	63	65	0.00015	0.01071	0	1250	1250	1250	0.9673	0	1	-360	360	0.0699	229.7904	0.0000	-224.8020	0.0000	0.0000	0.0000	0.0000;
	64	65	0.00015	0.01071	0	1250	1250	1250	0.9665	0	0	-360	360	0.0000	0.0000	0.0000	0.0000	0.0000	0.0000	0.0000	0.0000;
	90	92	0.00075	0.02444	-0.00832	330	330	330	1.0474	0	1	-360	360	-104.3038	14.7224	104.3817	-11.2972	0.0000	0.0000	0.0000	0.0000;
	91	93	0.00075	0.02469	-0.008	330	330	330	1.0445	0	1	-360	360	-103.3698	26.7433	103.4493	-23.2703	0.0000	0.0000	0.0000	0.0000;
	125	128	0.0005	0.02875	-0.016	400	400	400	1.1172	0	1	-360	360	-83.1420	-166.1985	83.3300	178.5702	0.0000	0.0000	0.0000	0.0000;
	149	150	0.00064	0.0305	0	400	400	400	1.077	0	1	-360	360	161.7616	-12.8132	-161.5974	20.6413	0.0000	0.0000	0.0000	0.0000;
	155	157	0.000232	0.023	0	500	500	500	1.0887	0	1	-360	360	-71.2954	7.5605	71.3073	-6.3781	0.0000	0.0000	0.0000	0.0000;
	156	158	0.000232	0.023	0	500	500	500	1.0887	0	1	-360	360	-71.1942	7.7155	71.2061	-6.5359	0.0000	0.0000	0.0000	0.0000;
	169	171	0.00035	0.02375	0	500	500	500	1.0894	0	1	-360	360	24.7102	-51.9053	-24.6984	52.7040	0.0000	0.0000	0.0000	0.0000;
	183	184	0.00059	0.030919	0	400	400	400	1.0584	0	1	-360	360	-23.3919	14.5445	23.3963	-14.3129	0.0000	0.0000	0.0000	0.0000;
	190	192	0.0004	0.03	0	500	500	500	1.0855	3.6	1	-360	360	-102.2136	-44.7362	102.2656	48.6373	0.0000	0.0000	0.0000	0.0000;
	2727	157	0.00031	0.00338	0.0992	1386	1386	1386	0	0	1	-360	360	88.1466	-42.5737	-88.1180	33.0053	0.0000	0.0000	0.0000	0.0000;
	2727	158	0.00031	0.00338	0.0992	1386	1386	1386	0	0	1	-360	360	85.8174	-41.2977	-85.7903	31.7127	0.0000	0.0000	0.0000	0.0000;
	2728	68	0.014341	0.083531	0.126034	385	385	385	0	0	1	-360	360	80.0000	-62.9017	-78.7944	55.1845	0.0000	0.0000	0.0000	0.0000;
	2726	76	0.01219	0.070659	0.117418	412	412	412	0	0	1	-360	360	-35.8331	-13.6191	35.9793	1.2954	0.0000	0.0000	0.0000	0.0000;
	2726	105	0.011781	0.07087	0.116838	412	412	412	0	0	1	-360	360	-147.6669	3.3214	149.9872	-2.5385	0.0000	0.0000	0.0000	0.0000;
	127	2725	0.001525	0.016837	0.50576	1386	1386	1386	0	0	1	-360	360	289.7285	-15.8687	-288.4780	-21.9123	0.0000	0.0000	0.0000	0.0000;
	2729	148	0.001651	0.015909	0.046948	316	316	316	0	0	1	-360	360	91.0404	-27.1769	-90.9167	22.7938	0.0000	0.0000	0.0000	0.0000;
	2729	149	0.001651	0.015909	0.046948	316	316	316	0	0	1	-360	360	92.4936	-26.9930	-92.3662	22.6448	0.0000	0.0000	0.0000	0.0000;
	2730	47	0.00188	0.02287	0.6432	831	831	831	0	0	1	-360	360	-117.7116	-71.2142	117.9877	6.9322	0.0000	0.0000	0.0000	0.0000;
	2730	48	0.00188	0.02287	0.6432	831	831	831	0	0	1	-360	360	-117.3734	-71.2667	117.6482	6.9679	0.0000	0.0000	0.0000	0.0000;
	82	2724	0.002769	0.031162	0.89824	1386	1386	1386	0	0	1	-360	360	189.4902	-38.1109	-188.5300	-43.7233	0.0000	0.0000	0.0000	0.0000;
	42	23	0.01345	0.081141	0.141134	339	339	339	0	0	1	-360	360	83.1479	14.1233	-82.3092	-25.4719	0.0000	0.0000	0.0000	0.0000;
	26	90	0.009091	0.062401	0.111417	453	453	453	0	0	1	-360	360	164.9602	-16.9170	-162.8515	18.3117	0.0000	0.0000	0.0000	0.0000;
	27	91	0.00868	0.06405	0.096994	427	427	427	0	0	1	-360	360	113.8553	-6.4325	-112.9052	2.0255	0.0000	0.0000	0.0000	0.0000;
	146	30	0.016961	0.123659	0.196988	316	316	316	0	0	1	-360	360	55.8739	-21.6464	-55.3835	3.0662	0.0000	0.0000	0.0000	0.0000;
	135	33	0.00512	0.02618	0.029621	301	301	301	0	0	1	-360	360	-47.9422	-4.2494	48.0459	1.4019	0.0000	0.0000	0.0000	0.0000;
	134	20	0.01068	0.061961	0.094961	385	385	385	0	0	1	-360	360	-80.4113	-7.3534	81.0189	-0.0242	0.0000	0.0000	0.0000	0.0000;
	164	21	0.014651	0.105891	0.170852	316	316	316	0	0	1	-360	360	60.5611	-25.1540	-60.0489	9.5783	0.0000	0.0000	0.0000	0.0000;
	40	109	0.01488	0.08161	0.114805	314	314	314	0	0	1	-360	360	-12.7373	23.9370	12.8748	-36.7715	0.0000	0.0000	0.0000	0.0000;
	39	91	0.011159	0.07231	0.103673	324	324	324	0	0	1	-360	360	-76.6836	33.2640	77.3718	-41.1250	0.0000	0.0000	0.0000	0.0000;
	178	83	0.005517	0.059484	0.170775	316	316	316	0	0	1	-360	360	-17.7442	-3.6689	17.7608	-16.3987	0.0000	0.0000	0.0000	0.0000;
	203	165	0.01176	0.068289	0.102802	324	324	324	0	0	1	-360	360	-159.2774	8.6135	162.0379	-3.9332	0.0000	0.0000	0.0000	0.0000;
	194	165	0.016818	0.089091	0.129935	358	358	358	0	0	1	-360	360	-135.2279	19.1860	138.1142	-18.3504	0.0000	0.0000	0.0000	0.0000;
	193	164	0.013843	0.087025	0.134842	383	383	383	0	0	1	-360	360	-140.2696	15.7615	142.7995	-14.8563	0.0000	0.0000	0.0000	0.0000;
	207	167	0.01676	0.097169	0.148685	269	269	269	0	0	1	-360	360	-80.1419	-1.8054	81.0942	-9.7387	0.0000	0.0000	0.0000	0.0000;
	42	10	0.01269	0.074979	0.130196	351	351	351	0	0	1	-360	360	88.1123	15.9363	-87.2246	-25.8336	0.0000	0.0000	0.0000	0.0000;
	198	18	0.014091	0.10413	0.15972	316	316	316	0	0	1	-360	360	-61.2436	-25.7630	61.7610	11.5638	0.0000	0.0000	0.0000	0.0000;
	100	54	0.003719	0.0438	0.100962	457	457	457	0	0	1	-360	360	-40.9578	-4.4744	41.0104	-6.9201	0.0000	0.0000	0.0000	0.0000;
	162	82	0.00194	0.02056	0.51584	1178	1178	1178	0	0	1	-360	360	-148.3954	-19.6264	148.8096	-29.4076	0.0000	0.0000	0.0000	0.0000;
	44	9	0.0015	0.01506	0.4032	1386	1386	1386	0	0	1	-360	360	198.2654	44.1480	-197.6687	-81.9511	0.0000	0.0000	0.0000	0.0000;
	185	150	0.00294	0.03463	0.9216	693	693	693	0	0	1	-360	360	-311.8076	-46.0098	314.6541	-14.3846	0.0000	0.0000	0.0000	0.0000;
	121	56	0.00169	0.01994	0.50624	831	831	831	0	0	1	-360	360	-16.1673	-32.9056	16.1719	-21.6536	0.0000	0.0000	0.0000	0.0000;
	29	93	0.00137	0.01625	0.41184	1386	1386	1386	0	0	1	-360	360	200.5981	-56.7210	-200.0595	19.5289	0.0000	0.0000	0.0000	0.0000;
	28	123	0.00231	0.02769	0.70144	1386	1386	1386	0	0	1	-360	360	253.9600	-46.7566	-252.5453	-10.2131	0.0000	0.0000	0.0000	0.0000;
	25	192	0.00207	0.02474	0.664	1386	1386	1386	0	0	1	-360	360	423.6588	55.1601	-419.9154	-77.5876	0.0000	0.0000	0.0000	0.0000;
	120	63	0.0015	0.01788	0.4512	831	831	831	0	0	1	-360	360	74.6751	16.3863	-74.5744	-63.4215	0.0000	0.0000	0.0000	0.0000;
	122	63	0.00469	0.05544	1.4048	831	831	831	0	0	0	-360	360	0.0000	0.0000	0.0000	0.0000	0.0000	0.0000	0.0000	0.0000;
	82	31	0.00331	0.03425	0.85888	977	977	977	0	0	1	-360	360	-80.2824	-63.1797	80.4991	-24.5003	0.0000	0.0000	0.0000	0.0000;
	92	28	0.00219	0.02369	0.59584	1178	1178	1178	0	0	1	-360	360	-136.1397	-2.2018	136.5399	-56.5212	0.0000	0.0000	0.0000	0.0000;
	12	4	0.01674	0.09711	0.144232	427	427	427	0	0	1	-360	360	-142.0280	15.6126	145.0841	-14.4065	0.0000	0.0000	0.0000	0.0000;
	30	11	0.0057	0.0407	0.06021	316	316	316	0	0	1	-360	360	-3.7592	-9.5229	3.7618	2.7176	0.0000	0.0000	0.0000	0.0000;
	24	4	0.004419	0.032229	0.049852	383	383	383	0	0	1	-360	360	59.7691	13.5750	-59.6240	-18.3135	0.0000	0.0000	0.0000	0.0000;
	17	7	0.014591	0.11219	0.165528	383	383	383	0	0	1	-360	360	-59.7668	1.9945	60.2342	-17.5127	0.0000	0.0000	0.0000	0.0000;
	21	10	0.01211	0.087419	0.140166	316	316	316	0	0	1	-360	360	2.3379	-7.2528	-2.3373	-8.6803	0.0000	0.0000	0.0000	0.0000;
	26	5	0.009773	0.050516	0.088959	377	377	377	0	0	1	-360	360	153.8492	-7.1488	-151.8849	6.9260	0.0000	0.0000	0.0000	0.0000;
	17	3	0.01068	0.07895	0.245194	274	274	274	0	0	1	-360	360	51.2663	-26.1574	-51.0104	-0.4320	0.0000	0.0000	0.0000	0.0000;
	26	19	0.0057	0.039521	0.075533	440	440	440	0	0	1	-360	360	167.4394	-0.0397	-166.0816	0.6282	0.0000	0.0000	0.0000	0.0000;
	27	20	0.0057	0.039521	0.075533	440	440	440	0	0	1	-360	360	91.5716	15.8034	-91.1483	-21.7182	0.0000	0.0000	0.0000	0.0000;
	13	6	0.00525	0.03988	0.061952	316	316	316	0	0	1	-360	360	18.8354	-26.2164	-18.7952	19.4338	0.0000	0.0000	0.0000	0.0000;
	13	12	2.1e-05	0.000207	0	316	316	316	0	0	1	-360	360	-67.9776	3.4042	67.9784	-3.3958	0.0000	0.0000	0.0000	0.0000;
	32	13	0.00093	0.00651	0.011132	316	316	316	0	0	1	-360	360	-49.1179	-23.9046	49.1422	22.8121	0.0000	0.0000	0.0000	0.0000;
	23	11	0.00205	0.01326	0.022429	385	385	385	0	0	1	-360	360	-10.0323	-2.6148	10.0342	0.0796	0.0000	0.0000	0.0000	0.0000;
	33	5	0.007831	0.043	0.04962	301	301	301	0	0	1	-360	360	-59.0672	-4.5906	59.3063	0.2007	0.0000	0.0000	0.0000	0.0000;
	19	4	0.00293	0.01599	0.024781	324	324	324	0	0	1	-360	360	75.6001	-2.4052	-75.4556	0.3265	0.0000	0.0000	0.0000	0.0000;
	26	1	0.00155	0.01169	0.018198	633	633	633	0	0	1	-360	360	71.7494	74.7704	-71.6060	-75.8139	0.0000	0.0000	0.0000	0.0000;
	27	2	0.00155	0.01169	0.018198	633	633	633	0	0	1	-360	360	-2.2464	11.2518	2.2484	-13.3890	0.0000	0.0000	0.0000	0.0000;
	27	24	0.003841	0.028531	0.045883	392	392	392	0	0	1	-360	360	102.0564	8.8805	-101.7142	-11.7415	0.0000	0.0000	0.0000	0.0000;
	25	9	0.00298	0.03418	0.93504	831	831	831	0	0	1	-360	360	-97.8591	-91.7983	98.1882	-3.0994	0.0000	0.0000	0.0000	0.0000;
	28	25	0.00358	0.04262	1.0944	1386	1386	1386	0	0	1	-360	360	392.9974	-38.3176	-387.7423	-13.5751	0.0000	0.0000	0.0000	0.0000;
	14	29	0.00336	0.03977	1.02163	1316	1316	1316	0	0	1	-360	360	-289.9587	-10.8423	292.6915	-64.6610	0.0000	0.0000	0.0000	0.0000;
	8	15	0.00299	0.03675	0.9184	1150	1150	1150	0	0	1	-360	360	72.6663	-89.4752	-72.4743	-7.9600	0.0000	0.0000	0.0000	0.0000;
	8	14	0.00112	0.01329	0.341248	1150	1150	1150	0	0	1	-360	360	-145.8848	59.6349	146.1702	-92.5943	0.0000	0.0000	0.0000	0.0000;
	31	29	0.00075	0.009	0.22848	1150	1150	1150	0	0	1	-360	360	-202.5591	15.8479	202.8559	-36.4034	0.0000	0.0000	0.0000	0.0000;
	62	58	0.010479	0.060969	0.092047	269	269	269	0	0	1	-360	360	-8.4149	-13.3238	8.4265	2.3331	0.0000	0.0000	0.0000	0.0000;
	60	55	0.00882	0.065641	0.100662	274	274	274	0	0	1	-360	360	-21.3781	3.1198	21.4179	-14.8515	0.0000	0.0000	0.0000	0.0000;
	67	34	0.011219	0.065581	0.098349	274	274	274	0	0	1	-360	360	-16.6348	-26.1657	16.6984	14.4963	0.0000	0.0000	0.0000	0.0000;
	50	34	0.01163	0.07031	0.105802	341	341	341	0	0	1	-360	360	6.9799	-24.5665	-6.9438	11.7969	0.0000	0.0000	0.0000	0.0000;
	58	42	0.00545	0.040211	0.066986	404	404	404	0	0	1	-360	360	-7.9303	18.3088	7.9557	-26.1496	0.0000	0.0000	0.0000	0.0000;
	59	43	0.00545	0.040211	0.066986	404	404	404	0	0	1	-360	360	-8.2528	18.3134	8.2785	-26.1531	0.0000	0.0000	0.0000	0.0000;
	59	34	0.00837	0.04868	0.073481	379	379	379	0	0	1	-360	360	-20.4255	-34.0438	20.5152	25.5764	0.0000	0.0000	0.0000	0.0000;
	68	51	0.003159	0.02076	0.03146	385	385	385	0	0	1	-360	360	47.5192	-27.9074	-47.4424	24.6004	0.0000	0.0000	0.0000	0.0000;
	51	38	0.006979	0.051961	0.079666	316	316	316	0	0	1	-360	360	22.9428	-8.3330	-22.9119	-1.1223	0.0000	0.0000	0.0000	0.0000;
	36	55	0.00374	0.027831	0.042689	274	274	274	0	0	1	-360	360	-23.0208	3.4836	23.0385	-8.4384	0.0000	0.0000	0.0000	0.0000;
	37	35	0.00769	0.057271	0.087894	316	316	316	0	0	1	-360	360	19.8112	24.3974	-19.7293	-34.1058	0.0000	0.0000	0.0000	0.0000;
	54	37	0.00556	0.04145	0.063598	383	383	383	0	0	1	-360	360	15.2359	-7.5368	-15.2244	0.0441	0.0000	0.0000	0.0000	0.0000;
	67	36	0.004521	0.03368	0.051691	392	392	392	0	0	1	-360	360	-5.8216	22.4657	5.8474	-28.4808	0.0000	0.0000	0.0000	0.0000;
	67	66	0.00151	0.008781	0.013165	341	341	341	0	0	1	-360	360	22.4564	3.7000	-22.4498	-5.2527	0.0000	0.0000	0.0000	0.0000;
	61	42	0.00574	0.042831	0.065727	404	404	404	0	0	1	-360	360	-18.9834	5.3600	19.0049	-13.0401	0.0000	0.0000	0.0000	0.0000;
	62	43	0.00707	0.045409	0.069309	314	314	314	0	0	1	-360	360	-18.0847	4.8989	18.1089	-13.0113	0.0000	0.0000	0.0000	0.0000;
	61	39	0.01213	0.062151	0.093712	314	314	314	0	0	1	-360	360	-11.0733	-12.3059	11.0903	1.1361	0.0000	0.0000	0.0000	0.0000;
	60	40	0.002479	0.017979	0.027588	316	316	316	0	0	1	-360	360	-46.0835	-16.5146	46.1320	13.5481	0.0000	0.0000	0.0000	0.0000;
	46	39	0.002401	0.01494	0.022525	341	341	341	0	0	1	-360	360	-40.8811	2.9724	40.9148	-5.4805	0.0000	0.0000	0.0000	0.0000;
	49	45	0.00167	0.0189	0.54176	1150	1150	1150	0	0	1	-360	360	8.7172	-40.9681	-8.7141	-18.4147	0.0000	0.0000	0.0000	0.0000;
	57	53	0.00109	0.01277	0.34176	1150	1150	1150	0	0	1	-360	360	64.9649	-57.1390	-64.9072	20.7523	0.0000	0.0000	0.0000	0.0000;
	41	57	0.002259	0.026439	0.70784	1150	1150	1150	0	0	1	-360	360	-8.7313	-67.3172	8.7516	-8.3340	0.0000	0.0000	0.0000	0.0000;
	63	57	0.00094	0.01097	0.29376	1393	1393	1393	0	0	1	-360	360	-151.0341	-89.6993	151.2850	61.1802	0.0000	0.0000	0.0000	0.0000;
	47	64	0.00113	0.01406	0.37488	1386	1386	1386	0	0	1	-360	360	-242.1423	10.8256	242.7758	-42.7505	0.0000	0.0000	0.0000	0.0000;
	52	44	0.00176	0.02144	0.57344	1150	1150	1150	0	0	1	-360	360	-39.8397	-50.8360	39.8716	-11.4934	0.0000	0.0000	0.0000	0.0000;
	96	125	0.004876	0.033616	0.059609	404	404	404	0	0	1	-360	360	12.1619	7.4633	-12.1507	-14.2923	0.0000	0.0000	0.0000	0.0000;
	75	106	0.01093	0.059194	0.08439	246	246	246	0	0	1	-360	360	-0.1224	2.2094	0.1271	-11.8523	0.0000	0.0000	0.0000	0.0000;
	106	94	0.001942	0.013926	0.022845	404	404	404	0	0	1	-360	360	57.8623	-2.0178	-57.8053	-0.1793	0.0000	0.0000	0.0000	0.0000;
	79	85	0.004318	0.029752	0.05264	316	316	316	0	0	1	-360	360	-7.7070	1.8996	7.7101	-7.9074	0.0000	0.0000	0.0000	0.0000;
	131	130	0.000661	0.004959	0.007579	379	379	379	0	0	1	-360	360	47.6246	-21.1766	-47.6093	20.4054	0.0000	0.0000	0.0000	0.0000;
	107	131	0.005372	0.040393	0.060055	379	379	379	0	0	1	-360	360	-88.9363	-22.9469	89.3265	18.9460	0.0000	0.0000	0.0000	0.0000;
	91	131	0.000826	0.005248	0.008683	301	301	301	0	0	1	-360	360	137.0838	-2.4026	-136.9511	2.2306	0.0000	0.0000	0.0000	0.0000;
	100	119	0.015888	0.087603	0.116818	314	314	314	0	0	1	-360	360	0.8060	17.4673	-0.7263	-30.6673	0.0000	0.0000	0.0000	0.0000;
	81	113	0.002169	0.014587	0.025749	269	269	269	0	0	1	-360	360	2.2872	-1.3184	-2.2871	-1.6043	0.0000	0.0000	0.0000	0.0000;
	116	101	0.017727	0.116777	0.163611	246	246	246	0	0	1	-360	360	10.4628	-28.7706	-10.3878	10.1582	0.0000	0.0000	0.0000	0.0000;
	126	74	0.00593	0.04093	0.072145	404	404	404	0	0	1	-360	360	14.3843	-1.2816	-14.3732	-6.9526	0.0000	0.0000	0.0000	0.0000;
	108	90	0.003905	0.028471	0.044983	383	383	383	0	0	1	-360	360	-153.2935	4.8445	154.0860	-4.3078	0.0000	0.0000	0.0000	0.0000;
	118	79	0.008161	0.042417	0.061197	356	356	356	0	0	1	-360	360	-12.8076	-1.3786	12.8196	-5.5746	0.0000	0.0000	0.0000	0.0000;
	119	78	0.008161	0.042417	0.061197	356	356	356	0	0	1	-360	360	-39.6058	13.0632	39.7371	-19.3737	0.0000	0.0000	0.0000	0.0000;
	79	76	0.005186	0.038388	0.058748	453	453	453	0	0	1	-360	360	208.0941	-4.4309	-206.1354	12.2383	0.0000	0.0000	0.0000	0.0000;
	78	73	0.002128	0.014029	0.022603	301	301	301	0	0	1	-360	360	118.6774	-10.1802	-118.4128	9.3529	0.0000	0.0000	0.0000	0.0000;
	114	78	0.004628	0.027748	0.046115	324	324	324	0	0	1	-360	360	-50.7065	-0.5237	50.8115	-4.0907	0.0000	0.0000	0.0000	0.0000;
	103	72	0.011219	0.070744	0.115705	246	246	246	0	0	1	-360	360	-87.1558	5.3422	87.9237	-13.6155	0.0000	0.0000	0.0000	0.0000;
	110	117	0.006012	0.041467	0.073636	383	383	383	0	0	1	-360	360	-40.5000	-6.5889	40.5868	-1.2295	0.0000	0.0000	0.0000	0.0000;
	91	69	0.002066	0.012789	0.020551	269	269	269	0	0	1	-360	360	36.2607	-2.3188	-36.2375	0.0594	0.0000	0.0000	0.0000	0.0000;
	86	90	0.001364	0.009731	0.016243	453	453	453	0	0	1	-360	360	-78.5543	10.2746	78.6277	-11.6513	0.0000	0.0000	0.0000	0.0000;
	129	87	0.000579	0.004112	0.007008	404	404	404	0	0	1	-360	360	-45.5747	1.1317	45.5850	-1.8783	0.0000	0.0000	0.0000	0.0000;
	132	76	0.000847	0.00624	0.009544	457	457	457	0	0	1	-360	360	-137.0000	16.1090	137.1426	-16.1380	0.0000	0.0000	0.0000	0.0000;
	133	77	0.000847	0.00626	0.009477	457	457	457	0	0	1	-360	360	-137.0000	16.2599	137.1427	-16.2777	0.0000	0.0000	0.0000	0.0000;
	102	77	0.001591	0.011116	0.019128	453	453	453	0	0	1	-360	360	104.2875	-19.9387	-104.1294	18.8800	0.0000	0.0000	0.0000	0.0000;
	125	104	0.003141	0.021591	0.038391	404	404	404	0	0	1	-360	360	96.2539	10.1867	-95.9976	-12.8356	0.0000	0.0000	0.0000	0.0000;
	126	111	0.004545	0.03157	0.055312	316	316	316	0	0	1	-360	360	70.6736	20.3929	-70.4550	-25.1992	0.0000	0.0000	0.0000	0.0000;
	104	84	0.001446	0.009917	0.017598	316	316	316	0	0	1	-360	360	0.0576	-5.9648	-0.0573	3.9540	0.0000	0.0000	0.0000	0.0000;
	105	95	0.003822	0.026674	0.046154	316	316	316	0	0	1	-360	360	-27.4901	8.0203	27.5192	-13.0853	0.0000	0.0000	0.0000	0.0000;
	112	80	0.007769	0.041281	0.063907	269	269	269	0	0	1	-360	360	6.8936	-7.6339	-6.8892	0.4083	0.0000	0.0000	0.0000	0.0000;
	89	78	0.004463	0.030413	0.048671	246	246	246	0	0	1	-360	360	-3.2870	-10.7671	3.2899	5.2563	0.0000	0.0000	0.0000	0.0000;
	117	108	0.005888	0.035062	0.052349	246	246	246	0	0	1	-360	360	-30.8731	-17.4654	30.9328	11.7818	0.0000	0.0000	0.0000	0.0000;
	109	99	0.003161	0.023409	0.036165	316	316	316	0	0	1	-360	360	42.1455	6.8834	-42.0950	-10.6940	0.0000	0.0000	0.0000	0.0000;
	116	79	0.001839	0.012603	0.022399	316	316	316	0	0	1	-360	360	51.7805	-7.9484	-51.7368	5.6796	0.0000	0.0000	0.0000	0.0000;
	107	88	0.001715	0.009607	0.014239	301	301	301	0	0	1	-360	360	69.1966	26.6632	-69.1133	-27.8166	0.0000	0.0000	0.0000	0.0000;
	98	79	0.003409	0.024421	0.039969	246	246	246	0	0	1	-360	360	30.5008	8.4367	-30.4699	-12.8125	0.0000	0.0000	0.0000	0.0000;
	117	78	0.001839	0.012603	0.02239	316	316	316	0	0	1	-360	360	-40.4365	35.2348	40.4842	-37.4673	0.0000	0.0000	0.0000	0.0000;
	83	97	0.005702	0.041488	0.066172	404	404	404	0	0	1	-360	360	24.7465	16.6793	-24.6965	-24.0767	0.0000	0.0000	0.0000	0.0000;
	124	118	0.004587	0.024628	0.036165	314	314	314	0	0	1	-360	360	-25.3927	-12.8922	25.4234	8.9256	0.0000	0.0000	0.0000	0.0000;
	124	110	0.002149	0.013327	0.022109	246	246	246	0	0	1	-360	360	-11.7132	-3.1827	11.7158	0.6809	0.0000	0.0000	0.0000	0.0000;
	100	71	0.000785	0.004876	0.00726	269	269	269	0	0	1	-360	360	0.0000	-0.8632	0.0000	-0.0000	0.0000	0.0000	0.0000	0.0000;
	101	70	0.000785	0.004876	0.007241	269	269	269	0	0	1	-360	360	0.0000	-0.8609	0.0000	0.0000	0.0000	0.0000	0.0000	0.0000;
	93	127	0.002413	0.027544	0.767968	831	831	831	0	0	1	-360	360	128.3681	17.2398	-127.9171	-92.2132	0.0000	0.0000	0.0000	0.0000;
	82	127	0.002131	0.024319	0.67744	1386	1386	1386	0	0	1	-360	360	89.3343	-16.0551	-89.1629	-51.8492	0.0000	0.0000	0.0000	0.0000;
	122	115	0.000913	0.0104	0.289888	1150	1150	1150	0	0	1	-360	360	37.2781	57.2349	-37.2205	-86.8766	0.0000	0.0000	0.0000	0.0000;
	123	121	0.003119	0.035631	0.991072	831	831	831	0	0	1	-360	360	111.1732	-93.5773	-110.7565	-7.2371	0.0000	0.0000	0.0000	0.0000;
	115	128	0.000919	0.010512	0.292928	1150	1150	1150	0	0	1	-360	360	-56.7539	49.7324	56.8198	-79.1813	0.0000	0.0000	0.0000	0.0000;
	173	156	0.01545	0.073349	0.126614	427	427	427	0	0	1	-360	360	-112.3675	0.9472	114.0636	-7.7183	0.0000	0.0000	0.0000	0.0000;
	174	155	0.01545	0.073349	0.126614	427	427	427	0	0	1	-360	360	-112.1466	0.8981	113.8360	-7.7014	0.0000	0.0000	0.0000	0.0000;
	176	155	0.01457	0.07955	0.14007	324	324	324	0	0	1	-360	360	-49.9433	2.7237	50.2645	-17.5812	0.0000	0.0000	0.0000	0.0000;
	177	156	0.01457	0.07955	0.14007	324	324	324	0	0	1	-360	360	-50.0621	2.7615	50.3849	-17.6105	0.0000	0.0000	0.0000	0.0000;
	176	144	0.006031	0.04401	0.069793	316	316	316	0	0	1	-360	360	27.6904	1.7836	-27.6496	-9.7392	0.0000	0.0000	0.0000	0.0000;
	165	140	0.011031	0.08057	0.124127	404	404	404	0	0	1	-360	360	80.0328	-32.4235	-79.3372	23.4472	0.0000	0.0000	0.0000	0.0000;
	137	155	0.005831	0.04231	0.070664	383	383	383	0	0	1	-360	360	-67.5192	9.8803	67.7526	-16.5731	0.0000	0.0000	0.0000	0.0000;
	170	173	0.01849	0.095599	0.159139	305	305	305	0	0	1	-360	360	-57.5995	8.6173	58.1763	-24.1171	0.0000	0.0000	0.0000	0.0000;
	152	174	0.010581	0.053	0.088475	385	385	385	0	0	1	-360	360	-68.3252	4.7934	68.7633	-12.8075	0.0000	0.0000	0.0000	0.0000;
	154	156	0.012521	0.091359	0.145394	453	453	453	0	0	1	-360	360	-78.9210	5.3922	79.5991	-17.6848	0.0000	0.0000	0.0000	0.0000;
	136	137	0.00506	0.036539	0.063598	305	305	305	0	0	1	-360	360	-35.5876	0.5992	35.6423	-7.7602	0.0000	0.0000	0.0000	0.0000;
	148	143	0.01043	0.077891	0.122065	383	383	383	0	0	1	-360	360	17.0432	-6.3870	-17.0177	-7.9200	0.0000	0.0000	0.0000	0.0000;
	153	181	0.007702	0.056917	0.086733	316	316	316	0	0	1	-360	360	32.7983	15.5138	-32.7008	-24.9604	0.0000	0.0000	0.0000	0.0000;
	153	180	0.002256	0.016674	0.02541	333	333	333	0	0	1	-360	360	-116.6113	0.9575	116.8700	-2.0660	0.0000	0.0000	0.0000	0.0000;
	175	147	0.009147	0.089554	0.215196	246	246	246	0	0	1	-360	360	-47.6331	-5.9757	47.8215	-16.2634	0.0000	0.0000	0.0000	0.0000;
	175	169	0.00244	0.01318	0.021296	341	341	341	0	0	0	-360	360	0.0000	0.0000	0.0000	0.0000	0.0000	0.0000	0.0000	0.0000;
	169	140	0.00355	0.02593	0.041237	404	404	404	0	0	1	-360	360	-48.3284	43.4181	48.4634	-47.2002	0.0000	0.0000	0.0000	0.0000;
	170	167	0.01312	0.076219	0.116644	324	324	324	0	0	1	-360	360	94.5162	-14.2534	-93.5051	6.5744	0.0000	0.0000	0.0000	0.0000;
	169	152	0.009341	0.05225	0.087701	305	305	305	0	0	1	-360	360	-35.9336	16.1855	36.0733	-25.5664	0.0000	0.0000	0.0000	0.0000;
	146	135	0.006141	0.032521	0.052456	356	356	356	0	0	1	-360	360	-103.4206	-10.1580	104.0106	7.3651	0.0000	0.0000	0.0000	0.0000;
	147	134	0.00438	0.03188	0.050723	453	453	453	0	0	1	-360	360	-105.5298	-15.3854	105.9720	12.8815	0.0000	0.0000	0.0000	0.0000;
	164	147	0.000479	0.00331	0.005711	404	404	404	0	0	1	-360	360	-46.5896	3.0318	46.5990	-3.6062	0.0000	0.0000	0.0000	0.0000;
	165	146	0.000479	0.00331	0.005711	404	404	404	0	0	1	-360	360	-53.6973	5.8057	53.7098	-6.3582	0.0000	0.0000	0.0000	0.0000;
	154	143	0.010539	0.076859	0.122355	316	316	316	0	0	1	-360	360	48.0182	-12.3802	-47.8110	-0.6185	0.0000	0.0000	0.0000	0.0000;
	159	148	0.00469	0.034651	0.053821	383	383	383	0	0	1	-360	360	-50.2386	1.8481	50.3392	-7.5061	0.0000	0.0000	0.0000	0.0000;
	149	141	0.006469	0.0413	0.069212	383	383	383	0	0	1	-360	360	42.6791	3.1654	-42.5772	-10.7119	0.0000	0.0000	0.0000	0.0000;
	168	141	0.00105	0.007211	0.01028	316	316	316	0	0	1	-360	360	-18.3877	-8.5066	18.3913	7.3202	0.0000	0.0000	0.0000	0.0000;
	168	159	0.006099	0.044831	0.070954	316	316	316	0	0	1	-360	360	-4.0203	-16.3276	4.0288	7.9968	0.0000	0.0000	0.0000	0.0000;
	176	136	0.002211	0.01655	0.024781	316	316	316	0	0	1	-360	360	6.7982	-5.9940	-6.7970	3.0610	0.0000	0.0000	0.0000	0.0000;
	178	177	0.005169	0.036979	0.058951	316	316	316	0	0	1	-360	360	-10.9278	0.2774	10.9336	-7.2364	0.0000	0.0000	0.0000	0.0000;
	181	173	0.002401	0.017789	0.027588	381	381	381	0	0	1	-360	360	-33.1254	8.0799	33.1500	-11.0897	0.0000	0.0000	0.0000	0.0000;
	157	138	0.00274	0.02696	0.70592	977	977	977	0	0	1	-360	360	141.4046	-95.9576	-140.7537	31.0372	0.0000	0.0000	0.0000	0.0000;
	163	139	0.0017	0.01733	0.45632	915	915	915	0	0	1	-360	360	-10.1744	6.1867	10.1907	-52.9666	0.0000	0.0000	0.0000	0.0000;
	161	162	0.00136	0.01574	0.433664	1469	1469	1469	0	0	1	-360	360	-60.5489	-18.5368	60.5973	-25.7222	0.0000	0.0000	0.0000	0.0000;
	171	151	0.00371	0.04326	1.18688	693	693	693	0	0	1	-360	360	4.7541	-90.7405	-4.7180	-29.9877	0.0000	0.0000	0.0000	0.0000;
...